Using: /usr/bin/time -p /proj/cad/synopsys/synopsys-2010.lnx86_64/hspice/hspice/linux/hspice64 ddccTest.sp
 ****** HSPICE -- D-2010.03-SP1 64-BIT (May 27 2010) linux ******               
  Copyright (C) 2010 Synopsys, Inc. All Rights Reserved.                        
  Unpublished-rights reserved under US copyright laws.
  This program is protected by law and is subject to the 
  terms and conditions of the license agreement from Synopsys.
  Use of this program is your acceptance to be bound by the 
  license agreement. HSPICE is the trademark of Synopsys, Inc.
  Input File: ddccTest.sp                                                       
 lic:  
 lic: FLEXlm: v8.5b 
 lic: USER:   mxj150530            HOSTNAME: txace3.utdallas.edu 
 lic: HOSTID:                      PID:      53657 
 lic: Using FLEXlm license file: 
 lic: 1700@dmv 
 lic: Checkout 1 hspice 
 lic: License/Maintenance for hspice will expire on 30-jun-2017/2016.06 
 lic: FLOATING license(s) on SERVER dmv 
 lic:   
 Init: read install configuration file: /proj/cad/synopsys/synopsys-2010.lnx86_64/hspice/hspice/meta.cfg
  **warning** (/home/cad/kits/IBM_CMRF8SF-LM013/IBM_PDK/cmrf8sf/V1.2.0.0LM/HSPICE/models/model013.lib_inc:4) Model pfet device geometries will not be checked against the limits set by lmin, lmax, wmin and wmax. To enable this check, add a period(.) to the model name(i.e. enable model selector).
1****** HSPICE -- D-2010.03-SP1 64-BIT (May 27 2010) linux ******               
 ******  
 *ddcctest.sp

  ******  circuit name directory
 circuit number to circuit name directory
   number circuitname                     definition         multiplier
        0 main circuit
        1 x1.                             chen               1.00 
1****** HSPICE -- D-2010.03-SP1 64-BIT (May 27 2010) linux ******               
 ******  
 *ddcctest.sp

  ******  mos   model parameters tnom=  25.000 temp=  25.000 *****
 ***************************************************************************
 ***        model parameters  model name:   0:pfet     model type:pmos   ***
 ***************************************************************************

   *** general parameters ***
    deriv=   0.           

   ***  level 49  model parameters  ***

      hspver=    2006.03               level=         49         
     version=        3.2            paramchk=          0         
      apwarn=          1                lite=          0         
      vgslim=          0             binUnit=          1         
      capMod=          2               xpart=          0         
      mobMod=          1              nqsMod=          0         
      stiMod=          0                 elm=          5         
    sfvtflag=          0                 tox=   3.35e-09 meter   
          xj=      6e-08 meter       binflag=          0         
        lmin=      1e-07 meter          lmax=      1e-05 meter   
        wmin=    1.4e-07 meter          wmax=     0.0001 meter   
        lref=          0 meter          wref=          0 meter   
        lint=    1.4e-08 meter          wint=      2e-08 meter   
       lmult=          1               wmult=          1         
          ll=          0                 lln=          1         
          lw=          0                 lwn=          0         
         lwl=          0                  wl=          0         
         wln=          1                  ww=          0         
         wwn=          0                 wwl=          0         
         dwg=-1.31121e-08 m/V             dwb=8.41247e-09 m/V^1/2 
          xl=          0                  xw=          0         
          a0=    1.92433                 ags=   0.232587 V^-1    
          b0=1.14814e-07 meter            b1= 9.0213e-07 meter   
        keta= -0.0228077 V^-1           voff=  -0.126311 V       
       ngate=          0 cm^-3           vbx=          0 V       
         vbm=         -3 V                xt=   1.55e-07 meter   
        vth0=  -0.221798 V               nch=      1e+18 cm^-3   
        nsub=      6e+16 cm^-3           nlx=    9.8e-08 meter   
      gamma1=          0 V^-1/2       gamma2=          0 V^-1/2  
          k1=   0.262208 V^1/2            k2=  0.0326484         
          k3=       -5.6                 k3b=    1.21968 V^-1    
          w0=8.00627e-08 meter          dvt0=    71.3288         
        dvt1=    2.89404                dvt2=  0.0738178 V^-1    
       dvt0w=  -0.190374 meter^-1      dvt1w=     406793 meter^-1
       dvt2w=  -0.179801 V^-1           dsub=    2.04778         
        eta0=    3.63314                etab= -0.0255249 V^-1    
          u0=    96.7765 cm^2/V/sec         ua=5.22158e-10 m/V     
          ub=5.06962e-19 (m/V)^2          uc=-2.31355e-11 V^-1    
        vsat=     120000 m/sec            a1=          0 v^-1    
          a2=          1               delta=  0.0243625 V       
        rdsw=    469.418 ohm-um         prwg=       -0.1 V^-1    
        prwb=  0.0352849 V^-1/2           wr=          1         
        pclm=        1.8             pdiblc1=      1e-05         
     pdiblc2=      0.075             pdiblcb=0.000247785 V^-1    
      pscbe1=8.48598e+08 V/m          pscbe2=7.71574e-10 V/m     
       drout=     1.2481                pvag=  -0.197983         
     nfactor=    0.10741                cdsc=   0.141753 f/m^2   
       cdscb=     -0.001 f/V/m^2       cdscd=  0.0295841 f/V/m^2 
         cit=          0 f/m^2        alpha0=   5.43e-09 m/V     
       beta0=    12.8657 V               dlc=  3.339e-08 meter   
         dwc=    1.5e-08 meter           clc=      1e-07 meter   
         cle=        0.6                cgso=    1.5e-11 f/m     
        cgdo=    1.5e-11 f/m            cgbo=          0 f/m     
        cgsl=    3.2e-10 f/m            cgdl=    3.2e-10 f/m     
      ckappa=      6.829                  cf=          0 f/m     
        acde=          1 m/V            moin=         15 V^1/2   
        toxm=   3.35e-09 m            dtoxcv=          0 m       
         vfb=    -1.0322 V            alpha1=          0 1/V     
        ijth=        0.1 A              noff=          1         
      voffcv=          0                 tcj=    0.00117 1/K     
       tcjsw=   0.001901 1/K          tcjswg=   0.000637 1/K     
         tpb=  -0.001573 V/K           tpbsw=          0 V/K     
      tpbswg=  -0.003851 V/K             llc=          0         
         lwc=          0                lwlc=          0         
         wlc=          0                 wwc=          0         
        wwlc=          0                tnom=     298.15 K       
         kt1=    -0.2818 V              kt1l=1.90606e-09         
         kt2=  -0.066803                 ute=       -1.2         
         ua1= 5.8329e-12 m/V             ub1=-1.0585e-18 (m/V)^2 
         uc1=          0 m/V^2            at=      20000 m/s     
         prt=        -10         
         using Berkeley noise model       noiMod=          3         
        noia=      1e+19                noib=     155574         
        noic=-2.0907e-12                  em=    4.1e+07         
          ef=      1.066                  af=          1         
          kf=          0              gdsnoi=-1.23457e-29         
         using Berkeley diodes          not using ACM  
         acm=        13                 hdif=         0 meter    
        ldif=         0 meter             js=     6e-08 amp/m^2  
         jsw=  2.06e-14 amp/m            xti=         3          
          nj=         1                   cj=   0.00105 f/m^2    
          mj=     0.405                   pb=    0.6943 V        
        cjsw=   1.1e-10 f/m             mjsw=    0.2545          
         php (not used)                  pbsw=       0.1 V        
      cjgate (not used)                 cjswg=   3.5e-10 f/m      
       mjswg=    0.8606                pbswg=     2.064 V        
         la0=-0.000794786                lags=  0.0950425         
       lketa= 0.00207043               lvth0= -0.0020661         
         lk1=  0.0088553                 lk2=0.000182368         
         lu0=   0.113543               lvsat=    -1186.5         
       lrdsw=   -10.8631              ldelta= 0.00146134         
       lpclm= -0.0707733            lpdiblc1= 0.00691228         
    lpdiblc2=-0.00095254            lnfactor=    0.10085         
       wvth0=      0.002                 wk1=   0.015401         
         wk2=-0.00590394                 wu0=   -2.36676         
       wvsat=    -1983.7            ppdiblc2=      1e-30         
 ***************************************************************************
 ***        model parameters  model name:   0:nfet     model type:nmos   ***
 ***************************************************************************

   *** general parameters ***
    deriv=   0.           

   ***  level 49  model parameters  ***

      hspver=    2006.03               level=         49         
     version=        3.2            paramchk=          0         
      apwarn=          1                lite=          0         
      vgslim=          0             binUnit=          1         
      capMod=          2               xpart=          0         
      mobMod=          1              nqsMod=          0         
      stiMod=          0                 elm=          5         
    sfvtflag=          0                 tox=   3.12e-09 meter   
          xj=      6e-08 meter       binflag=          0         
        lmin=      9e-08 meter          lmax=      1e-05 meter   
        wmin=    1.4e-07 meter          wmax=     0.0001 meter   
        lref=          0 meter          wref=          0 meter   
        lint=    1.4e-08 meter          wint=      5e-09 meter   
       lmult=          1               wmult=          1         
          ll=          0                 lln=          1         
          lw=          0                 lwn=          1         
         lwl=          0                  wl=          0         
         wln=          1                  ww=          0         
         wwn=          1                 wwl=          0         
         dwg= 3.1504e-09 m/V             dwb=-6.87514e-10 m/V^1/2 
          xl=          0                  xw=          0         
          a0=    2.07088                 ags=   0.816031 V^-1    
          b0=-3.19009e-08 meter            b1=4.06231e-07 meter   
        keta=  0.0116023 V^-1           voff=     -0.126 V       
       ngate=          0 cm^-3           vbx=          0 V       
         vbm=         -3 V                xt=   1.55e-07 meter   
        vth0=   0.185675 V               nch=6.15419e+17 cm^-3   
        nsub=      6e+16 cm^-3           nlx=   1.94e-07 meter   
      gamma1=          0 V^-1/2       gamma2=          0 V^-1/2  
          k1=   0.416451 V^1/2            k2= -0.0640539         
          k3=   -1.55781                 k3b=    5.69696 V^-1    
          w0= 1.2324e-06 meter          dvt0=    37.3239         
        dvt1=    2.73683                dvt2=  0.0105468 V^-1    
       dvt0w=   0.309771 meter^-1      dvt1w=1.69875e+06 meter^-1
       dvt2w=   0.128223 V^-1           dsub=    1.73647         
        eta0=    1.05952                etab=  -0.176282 V^-1    
          u0=    602.886 cm^2/V/sec         ua=1.06378e-09 m/V     
          ub=1.71316e-18 (m/V)^2          uc=1.71597e-10 V^-1    
        vsat=     123952 m/sec            a1= 0.00164278 v^-1    
          a2=          1               delta=  0.0188523 V       
        rdsw=    108.555 ohm-um         prwg=       -0.1 V^-1    
        prwb=  0.0439962 V^-1/2           wr=          1         
        pclm=   0.745881             pdiblc1=   0.509841         
     pdiblc2=  0.0710908             pdiblcb=0.000529334 V^-1    
      pscbe1=6.81667e+08 V/m          pscbe2=3.90387e-06 V/m     
       drout=    1.89094                pvag=   0.306605         
     nfactor=    1.58134                cdsc=  0.0847676 f/m^2   
       cdscb=-0.00060441 f/V/m^2       cdscd=  0.0105193 f/V/m^2 
         cit=          0 f/m^2        alpha0=   1.35e-08 m/V     
       beta0=       9.65 V               dlc=  3.447e-08 meter   
         dwc=    1.7e-09 meter           clc=      1e-07 meter   
         cle=        0.6                cgso=          0 f/m     
        cgdo=          0 f/m            cgbo=          0 f/m     
        cgsl=    3.3e-10 f/m            cgdl=    3.3e-10 f/m     
      ckappa=     16.487                  cf=          0 f/m     
        acde=          1 m/V            moin=         15 V^1/2   
        toxm=   3.12e-09 m            dtoxcv=          0 m       
         vfb=    -1.0637 V            alpha1=          0 1/V     
        ijth=        0.1 A              noff=          1         
      voffcv=          0                 tcj=    0.00105 1/K     
       tcjsw=    0.00169 1/K          tcjswg=   0.000653 1/K     
         tpb=   -0.00192 V/K           tpbsw=  -0.000723 V/K     
      tpbswg=   -0.00166 V/K             llc=          0         
         lwc=          0                lwlc=          0         
         wlc=          0                 wwc=          0         
        wwlc=          0                tnom=     298.15 K       
         kt1=  -0.212278 V              kt1l=-3.02832e-10         
         kt2= -0.0163997                 ute=      -1.42         
         ua1=      3e-09 m/V             ub1=-3.99369e-18 (m/V)^2 
         uc1=-2.01002e-10 m/V^2            at=    53670.2 m/s     
         prt=       -100         
         using Berkeley noise model       noiMod=          3         
        noia=      1e+19                noib=     205574         
        noic=-3.5555e-12                  em=    4.1e+07         
          ef=     0.9387                  af=          1         
          kf=          0              gdsnoi=-1.23457e-29         
         using Berkeley diodes          not using ACM  
         acm=        13                 hdif=         0 meter    
        ldif=         0 meter             js=  1.35e-07 amp/m^2  
         jsw=  8.07e-14 amp/m            xti=         3          
          nj=         1                   cj=   0.00105 f/m^2    
          mj=    0.3647                   pb=    0.7341 V        
        cjsw=   1.1e-10 f/m             mjsw=     1.052          
         php (not used)                  pbsw=    0.6662 V        
      cjgate (not used)                 cjswg=   3.5e-10 f/m      
       mjswg=     0.732                pbswg=     1.409 V        
         la0= -0.0568704                lags= 0.00731324         
       lketa=-0.000913731               lvth0=-5.59084e-06         
         lk1=-0.00481984                 lk2= 0.00856242         
         lu0=   -2.01176               lvsat=   -1043.21         
       lrdsw=    -5.6167              ldelta= 0.00102839         
       lpclm=0.000996166            lpdiblc1=-0.00866747         
    lpdiblc2=-0.00213395            lnfactor=  0.0239805         
         wk1=-0.00100034                 wk2= 0.00774723         
         wu0=         10               wvsat=    2379.18         
 

 **warning** Element identification problem 
   with output     0:y1               ;ignored.
 **warning** Element identification problem 
   with output     0:y2               ;ignored.
 **warning** Element identification problem 
   with output     0:y3               ;ignored.
 
      
 *****************************************************************
 ******  option summary
 ******
 runlvl  = 5         bypass  = 2         

 **warning** zero value is used for the non-existance
             output variable in the expression.
             you may have output variables with
             a long path name.
1****** HSPICE -- D-2010.03-SP1 64-BIT (May 27 2010) linux ******               
 ******  
 *ddcctest.sp

  ******  operating point information tnom=  25.000 temp=  70.000 *****
 ***** operating point status is all       simulation time is     0.     
    node    =voltage      node    =voltage      node    =voltage

 +0:vb1     =-100.0000m 0:vb2     =-380.0000m 0:vdd     = 900.0000m
 +0:vss     =-900.0000m 0:x       =-723.2659u 0:y1      =   0.     
 +0:y2      =   0.      0:y3      =   0.      1:net1    = 397.6308m
 +1:net10   =-683.5604m 1:net11   =-683.6544m 1:net12   =-644.3436m
 +1:net2    = 391.2111m 1:net3    = 426.2539m 1:net6    =-180.7159m
 +1:net7    =-181.1737m 1:net8    =-530.4613m 1:net9    =-530.7503m


 ****  voltage sources

 subckt                                                                    
 element  0:vdd      0:vss      0:vy1      0:vy2      0:vy3      0:vb1     
  volts    900.0000m -900.0000m    0.         0.         0.      -100.0000m
  current -284.6188m  284.6188m    0.         0.         0.         0.     
  power    256.1569m  256.1569m    0.         0.         0.         0.     

 subckt             
 element  0:vb2     
  volts   -380.0000m
  current    0.     
  power      0.     

     total voltage source power dissipation=  512.3138m       watts



 **** resistors

 subckt                                   
 element  0:r1       0:r2       0:r3      
  r value   10.0000k   10.0000k   10.0000k
  v drop     0.         0.         0.     
  current    0.         0.         0.     
  power      0.         0.         0.     



 **** mosfets


 subckt   x1         x1         x1         x1         x1         x1        
 element  1:m1       1:m2       1:m3       1:m4       1:m5       1:m6      
 model    0:nfet     0:nfet     0:nfet     0:nfet     0:nfet     0:nfet    
 region     Saturati   Saturati   Saturati   Saturati   Saturati   Saturati
  id        46.7869m   46.7952m   46.6497m   46.9209m   93.4449m   93.7078m
  ibs     -425.3560f -425.3560f -425.3560f -425.3560f -850.5697f -850.5697f
  ibd     -425.3585f -425.3585f -425.3585f -425.3585f -992.8147f -948.9343f
  vgs      530.4613m  530.4613m  530.0270m  530.7503m  571.9270m  572.3848m
  vds      349.2876m  349.7454m  350.0344m  349.5766m  578.3468m  572.3848m
  vbs     -369.5387m -369.5387m -369.2497m -369.2497m -719.2841m -718.8263m
  vth      348.4547m  348.4547m  348.4113m  348.4113m  397.2684m  397.2091m
  vdsat    177.5615m  177.5615m  177.2990m  177.7771m  176.7972m  177.1396m
  vod      182.0066m  182.0066m  181.6158m  182.3390m  174.6586m  175.1757m
  beta       2.8172     2.8172     2.8177     2.8168     5.4643     5.4633 
  gam eff  457.1039m  457.1039m  457.0970m  457.0970m  464.9926m  464.9829m
  gm       386.1465m  386.2203m  385.7103m  386.6739m  787.9797m  788.6199m
  gds       17.9505m   17.9222m   17.8418m   17.9863m   24.4405m   24.5910m
  gmb       58.9687m   58.9799m   58.9042m   59.0604m  105.3362m  105.4435m
  cdtot      3.2722p    3.2718p    3.2718p    3.2722p    5.8486p    5.8551p
  cgtot      4.4243p    4.4242p    4.4240p    4.4245p    8.7882p    8.7895p
  cstot      5.3241p    5.3241p    5.3242p    5.3245p    9.9726p    9.9738p
  cbtot      6.1995p    6.1992p    6.1996p    6.1999p   10.9924p   10.9991p
  cgs        3.6321p    3.6321p    3.6319p    3.6324p    7.2410p    7.2419p
  cgd      606.2501f  606.2156f  606.1642f  606.2527f    1.1942p    1.1948p



 subckt   x1         x1         x1         x1         x1         x1        
 element  1:m7       1:m8       1:m9       1:m12      1:m15      1:m16     
 model    0:pfet     0:pfet     0:pfet     0:pfet     0:nfet     0:nfet    
 region     Saturati   Saturati   Saturati   Saturati     Linear     Linear
  id       -93.4449m  -93.7078m  -97.4661m  -97.4661m   93.5821m   93.5706m
  ibs        0.         0.         0.       404.9103f -637.5411f -637.5398f
  ibd      404.9132f  404.9133f  404.9130f  404.9126f -637.9616f -637.9615f
  vgs     -502.3692m -502.3692m -508.7889m -607.4276m  583.5604m  583.6544m
  vds     -502.3692m -508.7889m -473.7461m -426.9772m  153.0991m  152.9041m
  vbs        0.         0.         0.       473.7461m -216.4396m -216.3456m
  vth     -327.4448m -327.3566m -327.8380m -424.1871m  324.6279m  324.6127m
  vdsat   -188.4356m -188.4995m -192.8410m -201.7651m  225.5103m  225.5793m
  vod     -174.9244m -175.0125m -180.9510m -183.2405m  258.9325m  259.0417m
  beta       5.2852     5.2853     5.2790     5.0796     4.1554     4.1552 
  gam eff  282.3993m  282.3993m  282.3993m  267.2574m  453.3181m  453.3157m
  gm       809.9928m  812.0056m  823.2308m  808.6481m  466.1729m  465.6951m
  gds       41.0669m   40.8417m   44.4391m   48.5249m  322.1896m  323.0620m
  gmb      176.3019m  176.7443m  179.2278m  153.7322m   80.6509m   80.5843m
  cdtot      9.4008p    9.3842p    9.4770p    8.6764p    5.9571p    5.9604p
  cgtot      9.0016p    8.9998p    9.0162p    9.0080p    6.9048p    6.9058p
  cstot     13.4744p   13.4744p   13.4782p   11.7837p    8.2267p    8.2264p
  cbtot     16.4234p   16.4087p   16.4891p   13.8884p   10.1048p   10.1056p
  cgs        6.6509p    6.6509p    6.6582p    6.6687p    5.3661p    5.3653p
  cgd        2.3540p    2.3521p    2.3632p    2.3830p    1.2949p    1.2968p



 subckt   x1         x1         x1         x1        
 element  1:m20      1:m21      1:m17      1:m22     
 model    0:nfet     0:nfet     0:nfet     0:nfet    
 region       Linear     Linear   Saturati   Saturati
  id        93.5821m   93.5706m   97.4661m   97.4661m
  ibs        0.         0.      -637.8515f    0.     
  ibd     -637.5417f -637.5404f   -2.3586p -637.8524f
  vgs      520.0000m  520.0000m  544.3436m  520.0000m
  vds      216.4396m  216.3456m  643.6203m  255.6564m
  vbs        0.         0.      -255.6564m    0.     
  vth      287.4926m  287.4926m  330.8786m  287.4906m
  vdsat    203.3936m  203.3936m  196.5046m  203.3948m
  vod      232.5074m  232.5074m  213.4650m  232.5094m
  beta       4.3265     4.3265     4.2215     4.3265 
  gam eff  447.4905m  447.4905m  454.3120m  447.4905m
  gm       591.8100m  591.6812m  695.8785m  635.2824m
  gds      122.0876m  122.2200m   23.1466m   80.0494m
  gmb      110.0184m  109.9968m  112.5063m  117.3113m
  cdtot      5.7585p    5.7589p    4.7013p    5.6213p
  cgtot      6.7597p    6.7597p    6.6451p    6.7331p
  cstot      8.8274p    8.8273p    8.2093p    8.8323p
  cbtot     10.9341p   10.9343p    9.3431p   10.8554p
  cgs        5.4894p    5.4893p    5.4746p    5.4987p
  cgd      987.4121f  987.5495f  889.8506f  947.5060f






 **** the results of the sqrt of integral (v**2 / freq)
      using more points from fstart to fstop 
      results in more accurate total noise values.

 **** total output noise voltage   =   13.1102u       volts
 **** total equivalent input noise =   13.0910u      
 ******  
 *ddcctest.sp

  ******  ac analysis tnom=  25.000 temp=  70.000 *****
x

        freq    inoise       onoise     
                    mag          mag    
    1.00000       2.5471u      2.5508u  
    1.00023       2.5468u      2.5505u  
    1.00046       2.5465u      2.5502u  
    1.00069       2.5463u      2.5499u  
    1.00092       2.5460u      2.5496u  
    1.00115       2.5457u      2.5493u  
    1.00138       2.5454u      2.5490u  
    1.00161       2.5451u      2.5487u  
    1.00184       2.5448u      2.5484u  
    1.00207       2.5445u      2.5482u  
    1.00231       2.5442u      2.5479u  
    1.00254       2.5439u      2.5476u  
    1.00277       2.5436u      2.5473u  
    1.00300       2.5433u      2.5470u  
    1.00323       2.5430u      2.5467u  
    1.00346       2.5428u      2.5464u  
    1.00369       2.5425u      2.5461u  
    1.00392       2.5422u      2.5458u  
    1.00415       2.5419u      2.5455u  
    1.00438       2.5416u      2.5452u  
    1.00462       2.5413u      2.5449u  
    1.00485       2.5410u      2.5446u  
    1.00508       2.5407u      2.5444u  
    1.00531       2.5404u      2.5441u  
    1.00554       2.5401u      2.5438u  
    1.00577       2.5398u      2.5435u  
    1.00600       2.5395u      2.5432u  
    1.00624       2.5392u      2.5429u  
    1.00647       2.5390u      2.5426u  
    1.00670       2.5387u      2.5423u  
    1.00693       2.5384u      2.5420u  
    1.00716       2.5381u      2.5417u  
    1.00740       2.5378u      2.5414u  
    1.00763       2.5375u      2.5411u  
    1.00786       2.5372u      2.5409u  
    1.00809       2.5369u      2.5406u  
    1.00832       2.5366u      2.5403u  
    1.00856       2.5363u      2.5400u  
    1.00879       2.5360u      2.5397u  
    1.00902       2.5358u      2.5394u  
    1.00925       2.5355u      2.5391u  
    1.00949       2.5352u      2.5388u  
    1.00972       2.5349u      2.5385u  
    1.00995       2.5346u      2.5382u  
    1.01018       2.5343u      2.5379u  
    1.01042       2.5340u      2.5376u  
    1.01065       2.5337u      2.5374u  
    1.01088       2.5334u      2.5371u  
    1.01111       2.5331u      2.5368u  
    1.01135       2.5328u      2.5365u  
    1.01158       2.5326u      2.5362u  
    1.01181       2.5323u      2.5359u  
    1.01205       2.5320u      2.5356u  
    1.01228       2.5317u      2.5353u  
    1.01251       2.5314u      2.5350u  
    1.01274       2.5311u      2.5347u  
    1.01298       2.5308u      2.5344u  
    1.01321       2.5305u      2.5341u  
    1.01344       2.5302u      2.5339u  
    1.01368       2.5299u      2.5336u  
    1.01391       2.5296u      2.5333u  
    1.01414       2.5294u      2.5330u  
    1.01438       2.5291u      2.5327u  
    1.01461       2.5288u      2.5324u  
    1.01485       2.5285u      2.5321u  
    1.01508       2.5282u      2.5318u  
    1.01531       2.5279u      2.5315u  
    1.01555       2.5276u      2.5312u  
    1.01578       2.5273u      2.5310u  
    1.01601       2.5270u      2.5307u  
    1.01625       2.5267u      2.5304u  
    1.01648       2.5265u      2.5301u  
    1.01672       2.5262u      2.5298u  
    1.01695       2.5259u      2.5295u  
    1.01719       2.5256u      2.5292u  
    1.01742       2.5253u      2.5289u  
    1.01765       2.5250u      2.5286u  
    1.01789       2.5247u      2.5283u  
    1.01812       2.5244u      2.5280u  
    1.01836       2.5241u      2.5278u  
    1.01859       2.5238u      2.5275u  
    1.01883       2.5236u      2.5272u  
    1.01906       2.5233u      2.5269u  
    1.01930       2.5230u      2.5266u  
    1.01953       2.5227u      2.5263u  
    1.01976       2.5224u      2.5260u  
    1.02000       2.5221u      2.5257u  
    1.02023       2.5218u      2.5254u  
    1.02047       2.5215u      2.5251u  
    1.02070       2.5212u      2.5249u  
    1.02094       2.5209u      2.5246u  
    1.02117       2.5207u      2.5243u  
    1.02141       2.5204u      2.5240u  
    1.02164       2.5201u      2.5237u  
    1.02188       2.5198u      2.5234u  
    1.02212       2.5195u      2.5231u  
    1.02235       2.5192u      2.5228u  
    1.02259       2.5189u      2.5225u  
    1.02282       2.5186u      2.5222u  
    1.02306       2.5183u      2.5220u  
    1.02329       2.5181u      2.5217u  
    1.02353       2.5178u      2.5214u  
    1.02376       2.5175u      2.5211u  
    1.02400       2.5172u      2.5208u  
    1.02424       2.5169u      2.5205u  
    1.02447       2.5166u      2.5202u  
    1.02471       2.5163u      2.5199u  
    1.02494       2.5160u      2.5196u  
    1.02518       2.5157u      2.5194u  
    1.02542       2.5155u      2.5191u  
    1.02565       2.5152u      2.5188u  
    1.02589       2.5149u      2.5185u  
    1.02612       2.5146u      2.5182u  
    1.02636       2.5143u      2.5179u  
    1.02660       2.5140u      2.5176u  
    1.02683       2.5137u      2.5173u  
    1.02707       2.5134u      2.5170u  
    1.02731       2.5131u      2.5168u  
    1.02754       2.5129u      2.5165u  
    1.02778       2.5126u      2.5162u  
    1.02802       2.5123u      2.5159u  
    1.02825       2.5120u      2.5156u  
    1.02849       2.5117u      2.5153u  
    1.02873       2.5114u      2.5150u  
    1.02896       2.5111u      2.5147u  
    1.02920       2.5108u      2.5144u  
    1.02944       2.5106u      2.5142u  
    1.02967       2.5103u      2.5139u  
    1.02991       2.5100u      2.5136u  
    1.03015       2.5097u      2.5133u  
    1.03039       2.5094u      2.5130u  
    1.03062       2.5091u      2.5127u  
    1.03086       2.5088u      2.5124u  
    1.03110       2.5085u      2.5121u  
    1.03134       2.5082u      2.5118u  
    1.03157       2.5080u      2.5116u  
    1.03181       2.5077u      2.5113u  
    1.03205       2.5074u      2.5110u  
    1.03229       2.5071u      2.5107u  
    1.03252       2.5068u      2.5104u  
    1.03276       2.5065u      2.5101u  
    1.03300       2.5062u      2.5098u  
    1.03324       2.5059u      2.5095u  
    1.03348       2.5057u      2.5093u  
    1.03371       2.5054u      2.5090u  
    1.03395       2.5051u      2.5087u  
    1.03419       2.5048u      2.5084u  
    1.03443       2.5045u      2.5081u  
    1.03467       2.5042u      2.5078u  
    1.03490       2.5039u      2.5075u  
    1.03514       2.5036u      2.5072u  
    1.03538       2.5034u      2.5069u  
    1.03562       2.5031u      2.5067u  
    1.03586       2.5028u      2.5064u  
    1.03610       2.5025u      2.5061u  
    1.03633       2.5022u      2.5058u  
    1.03657       2.5019u      2.5055u  
    1.03681       2.5016u      2.5052u  
    1.03705       2.5013u      2.5049u  
    1.03729       2.5011u      2.5046u  
    1.03753       2.5008u      2.5044u  
    1.03777       2.5005u      2.5041u  
    1.03801       2.5002u      2.5038u  
    1.03825       2.4999u      2.5035u  
    1.03848       2.4996u      2.5032u  
    1.03872       2.4993u      2.5029u  
    1.03896       2.4990u      2.5026u  
    1.03920       2.4988u      2.5023u  
    1.03944       2.4985u      2.5021u  
    1.03968       2.4982u      2.5018u  
    1.03992       2.4979u      2.5015u  
    1.04016       2.4976u      2.5012u  
    1.04040       2.4973u      2.5009u  
    1.04064       2.4970u      2.5006u  
    1.04088       2.4968u      2.5003u  
    1.04112       2.4965u      2.5000u  
    1.04136       2.4962u      2.4998u  
    1.04160       2.4959u      2.4995u  
    1.04184       2.4956u      2.4992u  
    1.04208       2.4953u      2.4989u  
    1.04232       2.4950u      2.4986u  
    1.04256       2.4947u      2.4983u  
    1.04280       2.4945u      2.4980u  
    1.04304       2.4942u      2.4978u  
    1.04328       2.4939u      2.4975u  
    1.04352       2.4936u      2.4972u  
    1.04376       2.4933u      2.4969u  
    1.04400       2.4930u      2.4966u  
    1.04424       2.4927u      2.4963u  
    1.04448       2.4925u      2.4960u  
    1.04472       2.4922u      2.4957u  
    1.04496       2.4919u      2.4955u  
    1.04520       2.4916u      2.4952u  
    1.04544       2.4913u      2.4949u  
    1.04568       2.4910u      2.4946u  
    1.04592       2.4907u      2.4943u  
    1.04616       2.4905u      2.4940u  
    1.04641       2.4902u      2.4937u  
    1.04665       2.4899u      2.4935u  
    1.04689       2.4896u      2.4932u  
    1.04713       2.4893u      2.4929u  
    1.04737       2.4890u      2.4926u  
    1.04761       2.4887u      2.4923u  
    1.04785       2.4885u      2.4920u  
    1.04809       2.4882u      2.4917u  
    1.04833       2.4879u      2.4915u  
    1.04858       2.4876u      2.4912u  
    1.04882       2.4873u      2.4909u  
    1.04906       2.4870u      2.4906u  
    1.04930       2.4867u      2.4903u  
    1.04954       2.4865u      2.4900u  
    1.04978       2.4862u      2.4897u  
    1.05003       2.4859u      2.4895u  
    1.05027       2.4856u      2.4892u  
    1.05051       2.4853u      2.4889u  
    1.05075       2.4850u      2.4886u  
    1.05099       2.4847u      2.4883u  
    1.05124       2.4845u      2.4880u  
    1.05148       2.4842u      2.4877u  
    1.05172       2.4839u      2.4875u  
    1.05196       2.4836u      2.4872u  
    1.05220       2.4833u      2.4869u  
    1.05245       2.4830u      2.4866u  
    1.05269       2.4827u      2.4863u  
    1.05293       2.4825u      2.4860u  
    1.05317       2.4822u      2.4857u  
    1.05342       2.4819u      2.4855u  
    1.05366       2.4816u      2.4852u  
    1.05390       2.4813u      2.4849u  
    1.05414       2.4810u      2.4846u  
    1.05439       2.4808u      2.4843u  
    1.05463       2.4805u      2.4840u  
    1.05487       2.4802u      2.4837u  
    1.05512       2.4799u      2.4835u  
    1.05536       2.4796u      2.4832u  
    1.05560       2.4793u      2.4829u  
    1.05584       2.4790u      2.4826u  
    1.05609       2.4788u      2.4823u  
    1.05633       2.4785u      2.4820u  
    1.05657       2.4782u      2.4817u  
    1.05682       2.4779u      2.4815u  
    1.05706       2.4776u      2.4812u  
    1.05730       2.4773u      2.4809u  
    1.05755       2.4771u      2.4806u  
    1.05779       2.4768u      2.4803u  
    1.05803       2.4765u      2.4800u  
    1.05828       2.4762u      2.4798u  
    1.05852       2.4759u      2.4795u  
    1.05877       2.4756u      2.4792u  
    1.05901       2.4753u      2.4789u  
    1.05925       2.4751u      2.4786u  
    1.05950       2.4748u      2.4783u  
    1.05974       2.4745u      2.4780u  
    1.05999       2.4742u      2.4778u  
    1.06023       2.4739u      2.4775u  
    1.06047       2.4736u      2.4772u  
    1.06072       2.4734u      2.4769u  
    1.06096       2.4731u      2.4766u  
    1.06121       2.4728u      2.4763u  
    1.06145       2.4725u      2.4761u  
    1.06170       2.4722u      2.4758u  
    1.06194       2.4719u      2.4755u  
    1.06218       2.4717u      2.4752u  
    1.06243       2.4714u      2.4749u  
    1.06267       2.4711u      2.4746u  
    1.06292       2.4708u      2.4744u  
    1.06316       2.4705u      2.4741u  
    1.06341       2.4702u      2.4738u  
    1.06365       2.4700u      2.4735u  
    1.06390       2.4697u      2.4732u  
    1.06414       2.4694u      2.4729u  
    1.06439       2.4691u      2.4726u  
    1.06463       2.4688u      2.4724u  
    1.06488       2.4685u      2.4721u  
    1.06512       2.4683u      2.4718u  
    1.06537       2.4680u      2.4715u  
    1.06561       2.4677u      2.4712u  
    1.06586       2.4674u      2.4709u  
    1.06611       2.4671u      2.4707u  
    1.06635       2.4668u      2.4704u  
    1.06660       2.4666u      2.4701u  
    1.06684       2.4663u      2.4698u  
    1.06709       2.4660u      2.4695u  
    1.06733       2.4657u      2.4692u  
    1.06758       2.4654u      2.4690u  
    1.06782       2.4651u      2.4687u  
    1.06807       2.4649u      2.4684u  
    1.06832       2.4646u      2.4681u  
    1.06856       2.4643u      2.4678u  
    1.06881       2.4640u      2.4675u  
    1.06905       2.4637u      2.4673u  
    1.06930       2.4634u      2.4670u  
    1.06955       2.4632u      2.4667u  
    1.06979       2.4629u      2.4664u  
    1.07004       2.4626u      2.4661u  
    1.07029       2.4623u      2.4658u  
    1.07053       2.4620u      2.4656u  
    1.07078       2.4617u      2.4653u  
    1.07103       2.4615u      2.4650u  
    1.07127       2.4612u      2.4647u  
    1.07152       2.4609u      2.4644u  
    1.07177       2.4606u      2.4641u  
    1.07201       2.4603u      2.4639u  
    1.07226       2.4601u      2.4636u  
    1.07251       2.4598u      2.4633u  
    1.07275       2.4595u      2.4630u  
    1.07300       2.4592u      2.4627u  
    1.07325       2.4589u      2.4625u  
    1.07349       2.4586u      2.4622u  
    1.07374       2.4584u      2.4619u  
    1.07399       2.4581u      2.4616u  
    1.07424       2.4578u      2.4613u  
    1.07448       2.4575u      2.4610u  
    1.07473       2.4572u      2.4608u  
    1.07498       2.4569u      2.4605u  
    1.07523       2.4567u      2.4602u  
    1.07547       2.4564u      2.4599u  
    1.07572       2.4561u      2.4596u  
    1.07597       2.4558u      2.4593u  
    1.07622       2.4555u      2.4591u  
    1.07647       2.4553u      2.4588u  
    1.07671       2.4550u      2.4585u  
    1.07696       2.4547u      2.4582u  
    1.07721       2.4544u      2.4579u  
    1.07746       2.4541u      2.4577u  
    1.07771       2.4538u      2.4574u  
    1.07795       2.4536u      2.4571u  
    1.07820       2.4533u      2.4568u  
    1.07845       2.4530u      2.4565u  
    1.07870       2.4527u      2.4562u  
    1.07895       2.4524u      2.4560u  
    1.07920       2.4522u      2.4557u  
    1.07944       2.4519u      2.4554u  
    1.07969       2.4516u      2.4551u  
    1.07994       2.4513u      2.4548u  
    1.08019       2.4510u      2.4546u  
    1.08044       2.4508u      2.4543u  
    1.08069       2.4505u      2.4540u  
    1.08094       2.4502u      2.4537u  
    1.08118       2.4499u      2.4534u  
    1.08143       2.4496u      2.4531u  
    1.08168       2.4493u      2.4529u  
    1.08193       2.4491u      2.4526u  
    1.08218       2.4488u      2.4523u  
    1.08243       2.4485u      2.4520u  
    1.08268       2.4482u      2.4517u  
    1.08293       2.4479u      2.4515u  
    1.08318       2.4477u      2.4512u  
    1.08343       2.4474u      2.4509u  
    1.08368       2.4471u      2.4506u  
    1.08393       2.4468u      2.4503u  
    1.08418       2.4465u      2.4500u  
    1.08443       2.4463u      2.4498u  
    1.08468       2.4460u      2.4495u  
    1.08493       2.4457u      2.4492u  
    1.08518       2.4454u      2.4489u  
    1.08543       2.4451u      2.4486u  
    1.08568       2.4449u      2.4484u  
    1.08593       2.4446u      2.4481u  
    1.08618       2.4443u      2.4478u  
    1.08643       2.4440u      2.4475u  
    1.08668       2.4437u      2.4472u  
    1.08693       2.4434u      2.4470u  
    1.08718       2.4432u      2.4467u  
    1.08743       2.4429u      2.4464u  
    1.08768       2.4426u      2.4461u  
    1.08793       2.4423u      2.4458u  
    1.08818       2.4420u      2.4456u  
    1.08843       2.4418u      2.4453u  
    1.08868       2.4415u      2.4450u  
    1.08893       2.4412u      2.4447u  
    1.08918       2.4409u      2.4444u  
    1.08943       2.4406u      2.4441u  
    1.08968       2.4404u      2.4439u  
    1.08993       2.4401u      2.4436u  
    1.09018       2.4398u      2.4433u  
    1.09044       2.4395u      2.4430u  
    1.09069       2.4392u      2.4427u  
    1.09094       2.4390u      2.4425u  
    1.09119       2.4387u      2.4422u  
    1.09144       2.4384u      2.4419u  
    1.09169       2.4381u      2.4416u  
    1.09194       2.4378u      2.4413u  
    1.09219       2.4376u      2.4411u  
    1.09245       2.4373u      2.4408u  
    1.09270       2.4370u      2.4405u  
    1.09295       2.4367u      2.4402u  
    1.09320       2.4364u      2.4399u  
    1.09345       2.4362u      2.4397u  
    1.09370       2.4359u      2.4394u  
    1.09396       2.4356u      2.4391u  
    1.09421       2.4353u      2.4388u  
    1.09446       2.4351u      2.4385u  
    1.09471       2.4348u      2.4383u  
    1.09496       2.4345u      2.4380u  
    1.09522       2.4342u      2.4377u  
    1.09547       2.4339u      2.4374u  
    1.09572       2.4337u      2.4371u  
    1.09597       2.4334u      2.4369u  
    1.09623       2.4331u      2.4366u  
    1.09648       2.4328u      2.4363u  
    1.09673       2.4325u      2.4360u  
    1.09698       2.4323u      2.4357u  
    1.09724       2.4320u      2.4355u  
    1.09749       2.4317u      2.4352u  
    1.09774       2.4314u      2.4349u  
    1.09799       2.4311u      2.4346u  
    1.09825       2.4309u      2.4343u  
    1.09850       2.4306u      2.4341u  
    1.09875       2.4303u      2.4338u  
    1.09901       2.4300u      2.4335u  
    1.09926       2.4297u      2.4332u  
    1.09951       2.4295u      2.4330u  
    1.09977       2.4292u      2.4327u  
    1.10002       2.4289u      2.4324u  
    1.10027       2.4286u      2.4321u  
    1.10053       2.4284u      2.4318u  
    1.10078       2.4281u      2.4316u  
    1.10103       2.4278u      2.4313u  
    1.10129       2.4275u      2.4310u  
    1.10154       2.4272u      2.4307u  
    1.10179       2.4270u      2.4304u  
    1.10205       2.4267u      2.4302u  
    1.10230       2.4264u      2.4299u  
    1.10255       2.4261u      2.4296u  
    1.10281       2.4258u      2.4293u  
    1.10306       2.4256u      2.4290u  
    1.10332       2.4253u      2.4288u  
    1.10357       2.4250u      2.4285u  
    1.10382       2.4247u      2.4282u  
    1.10408       2.4245u      2.4279u  
    1.10433       2.4242u      2.4277u  
    1.10459       2.4239u      2.4274u  
    1.10484       2.4236u      2.4271u  
    1.10510       2.4233u      2.4268u  
    1.10535       2.4231u      2.4265u  
    1.10561       2.4228u      2.4263u  
    1.10586       2.4225u      2.4260u  
    1.10611       2.4222u      2.4257u  
    1.10637       2.4219u      2.4254u  
    1.10662       2.4217u      2.4251u  
    1.10688       2.4214u      2.4249u  
    1.10713       2.4211u      2.4246u  
    1.10739       2.4208u      2.4243u  
    1.10764       2.4206u      2.4240u  
    1.10790       2.4203u      2.4238u  
    1.10815       2.4200u      2.4235u  
    1.10841       2.4197u      2.4232u  
    1.10866       2.4194u      2.4229u  
    1.10892       2.4192u      2.4226u  
    1.10917       2.4189u      2.4224u  
    1.10943       2.4186u      2.4221u  
    1.10969       2.4183u      2.4218u  
    1.10994       2.4181u      2.4215u  
    1.11020       2.4178u      2.4213u  
    1.11045       2.4175u      2.4210u  
    1.11071       2.4172u      2.4207u  
    1.11096       2.4170u      2.4204u  
    1.11122       2.4167u      2.4201u  
    1.11148       2.4164u      2.4199u  
    1.11173       2.4161u      2.4196u  
    1.11199       2.4158u      2.4193u  
    1.11224       2.4156u      2.4190u  
    1.11250       2.4153u      2.4188u  
    1.11276       2.4150u      2.4185u  
    1.11301       2.4147u      2.4182u  
    1.11327       2.4145u      2.4179u  
    1.11353       2.4142u      2.4176u  
    1.11378       2.4139u      2.4174u  
    1.11404       2.4136u      2.4171u  
    1.11429       2.4133u      2.4168u  
    1.11455       2.4131u      2.4165u  
    1.11481       2.4128u      2.4163u  
    1.11506       2.4125u      2.4160u  
    1.11532       2.4122u      2.4157u  
    1.11558       2.4120u      2.4154u  
    1.11584       2.4117u      2.4151u  
    1.11609       2.4114u      2.4149u  
    1.11635       2.4111u      2.4146u  
    1.11661       2.4109u      2.4143u  
    1.11686       2.4106u      2.4140u  
    1.11712       2.4103u      2.4138u  
    1.11738       2.4100u      2.4135u  
    1.11764       2.4097u      2.4132u  
    1.11789       2.4095u      2.4129u  
    1.11815       2.4092u      2.4127u  
    1.11841       2.4089u      2.4124u  
    1.11866       2.4086u      2.4121u  
    1.11892       2.4084u      2.4118u  
    1.11918       2.4081u      2.4115u  
    1.11944       2.4078u      2.4113u  
    1.11970       2.4075u      2.4110u  
    1.11995       2.4073u      2.4107u  
    1.12021       2.4070u      2.4104u  
    1.12047       2.4067u      2.4102u  
    1.12073       2.4064u      2.4099u  
    1.12099       2.4062u      2.4096u  
    1.12124       2.4059u      2.4093u  
    1.12150       2.4056u      2.4091u  
    1.12176       2.4053u      2.4088u  
    1.12202       2.4051u      2.4085u  
    1.12228       2.4048u      2.4082u  
    1.12254       2.4045u      2.4080u  
    1.12279       2.4042u      2.4077u  
    1.12305       2.4039u      2.4074u  
    1.12331       2.4037u      2.4071u  
    1.12357       2.4034u      2.4068u  
    1.12383       2.4031u      2.4066u  
    1.12409       2.4028u      2.4063u  
    1.12435       2.4026u      2.4060u  
    1.12460       2.4023u      2.4057u  
    1.12486       2.4020u      2.4055u  
    1.12512       2.4017u      2.4052u  
    1.12538       2.4015u      2.4049u  
    1.12564       2.4012u      2.4046u  
    1.12590       2.4009u      2.4044u  
    1.12616       2.4006u      2.4041u  
    1.12642       2.4004u      2.4038u  
    1.12668       2.4001u      2.4035u  
    1.12694       2.3998u      2.4033u  
    1.12720       2.3995u      2.4030u  
    1.12746       2.3993u      2.4027u  
    1.12772       2.3990u      2.4024u  
    1.12798       2.3987u      2.4022u  
    1.12824       2.3984u      2.4019u  
    1.12850       2.3982u      2.4016u  
    1.12876       2.3979u      2.4013u  
    1.12902       2.3976u      2.4011u  
    1.12928       2.3973u      2.4008u  
    1.12954       2.3971u      2.4005u  
    1.12980       2.3968u      2.4002u  
    1.13006       2.3965u      2.4000u  
    1.13032       2.3962u      2.3997u  
    1.13058       2.3960u      2.3994u  
    1.13084       2.3957u      2.3991u  
    1.13110       2.3954u      2.3988u  
    1.13136       2.3951u      2.3986u  
    1.13162       2.3949u      2.3983u  
    1.13188       2.3946u      2.3980u  
    1.13214       2.3943u      2.3977u  
    1.13240       2.3940u      2.3975u  
    1.13266       2.3938u      2.3972u  
    1.13292       2.3935u      2.3969u  
    1.13318       2.3932u      2.3966u  
    1.13344       2.3929u      2.3964u  
    1.13370       2.3927u      2.3961u  
    1.13397       2.3924u      2.3958u  
    1.13423       2.3921u      2.3955u  
    1.13449       2.3918u      2.3953u  
    1.13475       2.3916u      2.3950u  
    1.13501       2.3913u      2.3947u  
    1.13527       2.3910u      2.3944u  
    1.13553       2.3907u      2.3942u  
    1.13580       2.3905u      2.3939u  
    1.13606       2.3902u      2.3936u  
    1.13632       2.3899u      2.3933u  
    1.13658       2.3896u      2.3931u  
    1.13684       2.3894u      2.3928u  
    1.13710       2.3891u      2.3925u  
    1.13737       2.3888u      2.3923u  
    1.13763       2.3885u      2.3920u  
    1.13789       2.3883u      2.3917u  
    1.13815       2.3880u      2.3914u  
    1.13841       2.3877u      2.3912u  
    1.13868       2.3875u      2.3909u  
    1.13894       2.3872u      2.3906u  
    1.13920       2.3869u      2.3903u  
    1.13946       2.3866u      2.3901u  
    1.13972       2.3864u      2.3898u  
    1.13999       2.3861u      2.3895u  
    1.14025       2.3858u      2.3892u  
    1.14051       2.3855u      2.3890u  
    1.14078       2.3853u      2.3887u  
    1.14104       2.3850u      2.3884u  
    1.14130       2.3847u      2.3881u  
    1.14156       2.3844u      2.3879u  
    1.14183       2.3842u      2.3876u  
    1.14209       2.3839u      2.3873u  
    1.14235       2.3836u      2.3870u  
    1.14262       2.3833u      2.3868u  
    1.14288       2.3831u      2.3865u  
    1.14314       2.3828u      2.3862u  
    1.14340       2.3825u      2.3859u  
    1.14367       2.3823u      2.3857u  
    1.14393       2.3820u      2.3854u  
    1.14419       2.3817u      2.3851u  
    1.14446       2.3814u      2.3848u  
    1.14472       2.3812u      2.3846u  
    1.14499       2.3809u      2.3843u  
    1.14525       2.3806u      2.3840u  
    1.14551       2.3803u      2.3838u  
    1.14578       2.3801u      2.3835u  
    1.14604       2.3798u      2.3832u  
    1.14630       2.3795u      2.3829u  
    1.14657       2.3792u      2.3827u  
    1.14683       2.3790u      2.3824u  
    1.14710       2.3787u      2.3821u  
    1.14736       2.3784u      2.3818u  
    1.14762       2.3782u      2.3816u  
    1.14789       2.3779u      2.3813u  
    1.14815       2.3776u      2.3810u  
    1.14842       2.3773u      2.3807u  
    1.14868       2.3771u      2.3805u  
    1.14895       2.3768u      2.3802u  
    1.14921       2.3765u      2.3799u  
    1.14948       2.3762u      2.3797u  
    1.14974       2.3760u      2.3794u  
    1.15001       2.3757u      2.3791u  
    1.15027       2.3754u      2.3788u  
    1.15054       2.3752u      2.3786u  
    1.15080       2.3749u      2.3783u  
    1.15107       2.3746u      2.3780u  
    1.15133       2.3743u      2.3777u  
    1.15160       2.3741u      2.3775u  
    1.15186       2.3738u      2.3772u  
    1.15213       2.3735u      2.3769u  
    1.15239       2.3732u      2.3767u  
    1.15266       2.3730u      2.3764u  
    1.15292       2.3727u      2.3761u  
    1.15319       2.3724u      2.3758u  
    1.15345       2.3722u      2.3756u  
    1.15372       2.3719u      2.3753u  
    1.15398       2.3716u      2.3750u  
    1.15425       2.3713u      2.3747u  
    1.15452       2.3711u      2.3745u  
    1.15478       2.3708u      2.3742u  
    1.15505       2.3705u      2.3739u  
    1.15531       2.3703u      2.3737u  
    1.15558       2.3700u      2.3734u  
    1.15585       2.3697u      2.3731u  
    1.15611       2.3694u      2.3728u  
    1.15638       2.3692u      2.3726u  
    1.15664       2.3689u      2.3723u  
    1.15691       2.3686u      2.3720u  
    1.15718       2.3684u      2.3717u  
    1.15744       2.3681u      2.3715u  
    1.15771       2.3678u      2.3712u  
    1.15798       2.3675u      2.3709u  
    1.15824       2.3673u      2.3707u  
    1.15851       2.3670u      2.3704u  
    1.15878       2.3667u      2.3701u  
    1.15904       2.3664u      2.3698u  
    1.15931       2.3662u      2.3696u  
    1.15958       2.3659u      2.3693u  
    1.15985       2.3656u      2.3690u  
    1.16011       2.3654u      2.3688u  
    1.16038       2.3651u      2.3685u  
    1.16065       2.3648u      2.3682u  
    1.16091       2.3645u      2.3679u  
    1.16118       2.3643u      2.3677u  
    1.16145       2.3640u      2.3674u  
    1.16172       2.3637u      2.3671u  
    1.16198       2.3635u      2.3669u  
    1.16225       2.3632u      2.3666u  
    1.16252       2.3629u      2.3663u  
    1.16279       2.3627u      2.3660u  
    1.16305       2.3624u      2.3658u  
    1.16332       2.3621u      2.3655u  
    1.16359       2.3618u      2.3652u  
    1.16386       2.3616u      2.3650u  
    1.16413       2.3613u      2.3647u  
    1.16439       2.3610u      2.3644u  
    1.16466       2.3608u      2.3641u  
    1.16493       2.3605u      2.3639u  
    1.16520       2.3602u      2.3636u  
    1.16547       2.3599u      2.3633u  
    1.16574       2.3597u      2.3631u  
    1.16600       2.3594u      2.3628u  
    1.16627       2.3591u      2.3625u  
    1.16654       2.3589u      2.3622u  
    1.16681       2.3586u      2.3620u  
    1.16708       2.3583u      2.3617u  
    1.16735       2.3580u      2.3614u  
    1.16762       2.3578u      2.3612u  
    1.16788       2.3575u      2.3609u  
    1.16815       2.3572u      2.3606u  
    1.16842       2.3570u      2.3603u  
    1.16869       2.3567u      2.3601u  
    1.16896       2.3564u      2.3598u  
    1.16923       2.3562u      2.3595u  
    1.16950       2.3559u      2.3593u  
    1.16977       2.3556u      2.3590u  
    1.17004       2.3553u      2.3587u  
    1.17031       2.3551u      2.3585u  
    1.17058       2.3548u      2.3582u  
    1.17085       2.3545u      2.3579u  
    1.17112       2.3543u      2.3576u  
    1.17139       2.3540u      2.3574u  
    1.17166       2.3537u      2.3571u  
    1.17193       2.3535u      2.3568u  
    1.17220       2.3532u      2.3566u  
    1.17247       2.3529u      2.3563u  
    1.17274       2.3526u      2.3560u  
    1.17301       2.3524u      2.3557u  
    1.17328       2.3521u      2.3555u  
    1.17355       2.3518u      2.3552u  
    1.17382       2.3516u      2.3549u  
    1.17409       2.3513u      2.3547u  
    1.17436       2.3510u      2.3544u  
    1.17463       2.3508u      2.3541u  
    1.17490       2.3505u      2.3539u  
    1.17517       2.3502u      2.3536u  
    1.17544       2.3499u      2.3533u  
    1.17571       2.3497u      2.3530u  
    1.17598       2.3494u      2.3528u  
    1.17625       2.3491u      2.3525u  
    1.17652       2.3489u      2.3522u  
    1.17679       2.3486u      2.3520u  
    1.17706       2.3483u      2.3517u  
    1.17733       2.3481u      2.3514u  
    1.17761       2.3478u      2.3512u  
    1.17788       2.3475u      2.3509u  
    1.17815       2.3472u      2.3506u  
    1.17842       2.3470u      2.3503u  
    1.17869       2.3467u      2.3501u  
    1.17896       2.3464u      2.3498u  
    1.17923       2.3462u      2.3495u  
    1.17951       2.3459u      2.3493u  
    1.17978       2.3456u      2.3490u  
    1.18005       2.3454u      2.3487u  
    1.18032       2.3451u      2.3485u  
    1.18059       2.3448u      2.3482u  
    1.18086       2.3446u      2.3479u  
    1.18114       2.3443u      2.3477u  
    1.18141       2.3440u      2.3474u  
    1.18168       2.3437u      2.3471u  
    1.18195       2.3435u      2.3468u  
    1.18222       2.3432u      2.3466u  
    1.18250       2.3429u      2.3463u  
    1.18277       2.3427u      2.3460u  
    1.18304       2.3424u      2.3458u  
    1.18331       2.3421u      2.3455u  
    1.18359       2.3419u      2.3452u  
    1.18386       2.3416u      2.3450u  
    1.18413       2.3413u      2.3447u  
    1.18440       2.3411u      2.3444u  
    1.18468       2.3408u      2.3442u  
    1.18495       2.3405u      2.3439u  
    1.18522       2.3403u      2.3436u  
    1.18550       2.3400u      2.3433u  
    1.18577       2.3397u      2.3431u  
    1.18604       2.3395u      2.3428u  
    1.18631       2.3392u      2.3425u  
    1.18659       2.3389u      2.3423u  
    1.18686       2.3386u      2.3420u  
    1.18713       2.3384u      2.3417u  
    1.18741       2.3381u      2.3415u  
    1.18768       2.3378u      2.3412u  
    1.18796       2.3376u      2.3409u  
    1.18823       2.3373u      2.3407u  
    1.18850       2.3370u      2.3404u  
    1.18878       2.3368u      2.3401u  
    1.18905       2.3365u      2.3399u  
    1.18932       2.3362u      2.3396u  
    1.18960       2.3360u      2.3393u  
    1.18987       2.3357u      2.3390u  
    1.19015       2.3354u      2.3388u  
    1.19042       2.3352u      2.3385u  
    1.19069       2.3349u      2.3382u  
    1.19097       2.3346u      2.3380u  
    1.19124       2.3344u      2.3377u  
    1.19152       2.3341u      2.3374u  
    1.19179       2.3338u      2.3372u  
    1.19207       2.3336u      2.3369u  
    1.19234       2.3333u      2.3366u  
    1.19261       2.3330u      2.3364u  
    1.19289       2.3327u      2.3361u  
    1.19316       2.3325u      2.3358u  
    1.19344       2.3322u      2.3356u  
    1.19371       2.3319u      2.3353u  
    1.19399       2.3317u      2.3350u  
    1.19426       2.3314u      2.3348u  
    1.19454       2.3311u      2.3345u  
    1.19481       2.3309u      2.3342u  
    1.19509       2.3306u      2.3340u  
    1.19536       2.3303u      2.3337u  
    1.19564       2.3301u      2.3334u  
    1.19591       2.3298u      2.3332u  
    1.19619       2.3295u      2.3329u  
    1.19647       2.3293u      2.3326u  
    1.19674       2.3290u      2.3323u  
    1.19702       2.3287u      2.3321u  
    1.19729       2.3285u      2.3318u  
    1.19757       2.3282u      2.3315u  
    1.19784       2.3279u      2.3313u  
    1.19812       2.3277u      2.3310u  
    1.19840       2.3274u      2.3307u  
    1.19867       2.3271u      2.3305u  
    1.19895       2.3269u      2.3302u  
    1.19922       2.3266u      2.3299u  
    1.19950       2.3263u      2.3297u  
    1.19978       2.3261u      2.3294u  
    1.20005       2.3258u      2.3291u  
    1.20033       2.3255u      2.3289u  
    1.20060       2.3253u      2.3286u  
    1.20088       2.3250u      2.3283u  
    1.20116       2.3247u      2.3281u  
    1.20143       2.3245u      2.3278u  
    1.20171       2.3242u      2.3275u  
    1.20199       2.3239u      2.3273u  
    1.20226       2.3237u      2.3270u  
    1.20254       2.3234u      2.3267u  
    1.20282       2.3231u      2.3265u  
    1.20310       2.3229u      2.3262u  
    1.20337       2.3226u      2.3259u  
    1.20365       2.3223u      2.3257u  
    1.20393       2.3221u      2.3254u  
    1.20420       2.3218u      2.3251u  
    1.20448       2.3215u      2.3249u  
    1.20476       2.3213u      2.3246u  
    1.20504       2.3210u      2.3243u  
    1.20531       2.3207u      2.3241u  
    1.20559       2.3205u      2.3238u  
    1.20587       2.3202u      2.3235u  
    1.20615       2.3199u      2.3233u  
    1.20642       2.3197u      2.3230u  
    1.20670       2.3194u      2.3227u  
    1.20698       2.3191u      2.3225u  
    1.20726       2.3189u      2.3222u  
    1.20754       2.3186u      2.3219u  
    1.20781       2.3183u      2.3217u  
    1.20809       2.3181u      2.3214u  
    1.20837       2.3178u      2.3211u  
    1.20865       2.3175u      2.3209u  
    1.20893       2.3173u      2.3206u  
    1.20921       2.3170u      2.3203u  
    1.20948       2.3167u      2.3201u  
    1.20976       2.3165u      2.3198u  
    1.21004       2.3162u      2.3195u  
    1.21032       2.3159u      2.3193u  
    1.21060       2.3157u      2.3190u  
    1.21088       2.3154u      2.3187u  
    1.21116       2.3152u      2.3185u  
    1.21143       2.3149u      2.3182u  
    1.21171       2.3146u      2.3179u  
    1.21199       2.3144u      2.3177u  
    1.21227       2.3141u      2.3174u  
    1.21255       2.3138u      2.3171u  
    1.21283       2.3136u      2.3169u  
    1.21311       2.3133u      2.3166u  
    1.21339       2.3130u      2.3163u  
    1.21367       2.3128u      2.3161u  
    1.21395       2.3125u      2.3158u  
    1.21423       2.3122u      2.3155u  
    1.21451       2.3120u      2.3153u  
    1.21479       2.3117u      2.3150u  
    1.21507       2.3114u      2.3148u  
    1.21535       2.3112u      2.3145u  
    1.21563       2.3109u      2.3142u  
    1.21591       2.3106u      2.3140u  
    1.21619       2.3104u      2.3137u  
    1.21647       2.3101u      2.3134u  
    1.21675       2.3098u      2.3132u  
    1.21703       2.3096u      2.3129u  
    1.21731       2.3093u      2.3126u  
    1.21759       2.3091u      2.3124u  
    1.21787       2.3088u      2.3121u  
    1.21815       2.3085u      2.3118u  
    1.21843       2.3083u      2.3116u  
    1.21871       2.3080u      2.3113u  
    1.21899       2.3077u      2.3110u  
    1.21927       2.3075u      2.3108u  
    1.21955       2.3072u      2.3105u  
    1.21983       2.3069u      2.3102u  
    1.22011       2.3067u      2.3100u  
    1.22039       2.3064u      2.3097u  
    1.22067       2.3061u      2.3094u  
    1.22096       2.3059u      2.3092u  
    1.22124       2.3056u      2.3089u  
    1.22152       2.3053u      2.3087u  
    1.22180       2.3051u      2.3084u  
    1.22208       2.3048u      2.3081u  
    1.22236       2.3046u      2.3079u  
    1.22264       2.3043u      2.3076u  
    1.22293       2.3040u      2.3073u  
    1.22321       2.3038u      2.3071u  
    1.22349       2.3035u      2.3068u  
    1.22377       2.3032u      2.3065u  
    1.22405       2.3030u      2.3063u  
    1.22433       2.3027u      2.3060u  
    1.22462       2.3024u      2.3057u  
    1.22490       2.3022u      2.3055u  
    1.22518       2.3019u      2.3052u  
    1.22546       2.3016u      2.3049u  
    1.22574       2.3014u      2.3047u  
    1.22603       2.3011u      2.3044u  
    1.22631       2.3009u      2.3042u  
    1.22659       2.3006u      2.3039u  
    1.22687       2.3003u      2.3036u  
    1.22716       2.3001u      2.3034u  
    1.22744       2.2998u      2.3031u  
    1.22772       2.2995u      2.3028u  
    1.22800       2.2993u      2.3026u  
    1.22829       2.2990u      2.3023u  
    1.22857       2.2987u      2.3020u  
    1.22885       2.2985u      2.3018u  
    1.22914       2.2982u      2.3015u  
    1.22942       2.2980u      2.3012u  
    1.22970       2.2977u      2.3010u  
    1.22999       2.2974u      2.3007u  
    1.23027       2.2972u      2.3005u  
    1.23055       2.2969u      2.3002u  
    1.23084       2.2966u      2.2999u  
    1.23112       2.2964u      2.2997u  
    1.23140       2.2961u      2.2994u  
    1.23169       2.2958u      2.2991u  
    1.23197       2.2956u      2.2989u  
    1.23225       2.2953u      2.2986u  
    1.23254       2.2951u      2.2983u  
    1.23282       2.2948u      2.2981u  
    1.23310       2.2945u      2.2978u  
    1.23339       2.2943u      2.2976u  
    1.23367       2.2940u      2.2973u  
    1.23396       2.2937u      2.2970u  
    1.23424       2.2935u      2.2968u  
    1.23453       2.2932u      2.2965u  
    1.23481       2.2929u      2.2962u  
    1.23509       2.2927u      2.2960u  
    1.23538       2.2924u      2.2957u  
    1.23566       2.2922u      2.2954u  
    1.23595       2.2919u      2.2952u  
    1.23623       2.2916u      2.2949u  
    1.23652       2.2914u      2.2947u  
    1.23680       2.2911u      2.2944u  
    1.23709       2.2908u      2.2941u  
    1.23737       2.2906u      2.2939u  
    1.23766       2.2903u      2.2936u  
    1.23794       2.2901u      2.2933u  
    1.23823       2.2898u      2.2931u  
    1.23851       2.2895u      2.2928u  
    1.23880       2.2893u      2.2926u  
    1.23908       2.2890u      2.2923u  
    1.23937       2.2887u      2.2920u  
    1.23965       2.2885u      2.2918u  
    1.23994       2.2882u      2.2915u  
    1.24022       2.2880u      2.2912u  
    1.24051       2.2877u      2.2910u  
    1.24079       2.2874u      2.2907u  
    1.24108       2.2872u      2.2904u  
    1.24137       2.2869u      2.2902u  
    1.24165       2.2866u      2.2899u  
    1.24194       2.2864u      2.2897u  
    1.24222       2.2861u      2.2894u  
    1.24251       2.2859u      2.2891u  
    1.24280       2.2856u      2.2889u  
    1.24308       2.2853u      2.2886u  
    1.24337       2.2851u      2.2883u  
    1.24366       2.2848u      2.2881u  
    1.24394       2.2845u      2.2878u  
    1.24423       2.2843u      2.2876u  
    1.24451       2.2840u      2.2873u  
    1.24480       2.2838u      2.2870u  
    1.24509       2.2835u      2.2868u  
    1.24537       2.2832u      2.2865u  
    1.24566       2.2830u      2.2862u  
    1.24595       2.2827u      2.2860u  
    1.24624       2.2824u      2.2857u  
    1.24652       2.2822u      2.2855u  
    1.24681       2.2819u      2.2852u  
    1.24710       2.2817u      2.2849u  
    1.24738       2.2814u      2.2847u  
    1.24767       2.2811u      2.2844u  
    1.24796       2.2809u      2.2842u  
    1.24825       2.2806u      2.2839u  
    1.24853       2.2804u      2.2836u  
    1.24882       2.2801u      2.2834u  
    1.24911       2.2798u      2.2831u  
    1.24940       2.2796u      2.2828u  
    1.24968       2.2793u      2.2826u  
    1.24997       2.2790u      2.2823u  
    1.25026       2.2788u      2.2821u  
    1.25055       2.2785u      2.2818u  
    1.25083       2.2783u      2.2815u  
    1.25112       2.2780u      2.2813u  
    1.25141       2.2777u      2.2810u  
    1.25170       2.2775u      2.2807u  
    1.25199       2.2772u      2.2805u  
    1.25228       2.2770u      2.2802u  
    1.25256       2.2767u      2.2800u  
    1.25285       2.2764u      2.2797u  
    1.25314       2.2762u      2.2794u  
    1.25343       2.2759u      2.2792u  
    1.25372       2.2757u      2.2789u  
    1.25401       2.2754u      2.2787u  
    1.25430       2.2751u      2.2784u  
    1.25458       2.2749u      2.2781u  
    1.25487       2.2746u      2.2779u  
    1.25516       2.2743u      2.2776u  
    1.25545       2.2741u      2.2773u  
    1.25574       2.2738u      2.2771u  
    1.25603       2.2736u      2.2768u  
    1.25632       2.2733u      2.2766u  
    1.25661       2.2730u      2.2763u  
    1.25690       2.2728u      2.2760u  
    1.25719       2.2725u      2.2758u  
    1.25748       2.2723u      2.2755u  
    1.25777       2.2720u      2.2753u  
    1.25806       2.2717u      2.2750u  
    1.25835       2.2715u      2.2747u  
    1.25864       2.2712u      2.2745u  
    1.25893       2.2710u      2.2742u  
    1.25922       2.2707u      2.2740u  
    1.25951       2.2704u      2.2737u  
    1.25980       2.2702u      2.2734u  
    1.26009       2.2699u      2.2732u  
    1.26038       2.2697u      2.2729u  
    1.26067       2.2694u      2.2727u  
    1.26096       2.2691u      2.2724u  
    1.26125       2.2689u      2.2721u  
    1.26154       2.2686u      2.2719u  
    1.26183       2.2684u      2.2716u  
    1.26212       2.2681u      2.2713u  
    1.26241       2.2678u      2.2711u  
    1.26270       2.2676u      2.2708u  
    1.26299       2.2673u      2.2706u  
    1.26328       2.2671u      2.2703u  
    1.26357       2.2668u      2.2700u  
    1.26386       2.2665u      2.2698u  
    1.26415       2.2663u      2.2695u  
    1.26445       2.2660u      2.2693u  
    1.26474       2.2658u      2.2690u  
    1.26503       2.2655u      2.2687u  
    1.26532       2.2652u      2.2685u  
    1.26561       2.2650u      2.2682u  
    1.26590       2.2647u      2.2680u  
    1.26619       2.2645u      2.2677u  
    1.26648       2.2642u      2.2674u  
    1.26678       2.2639u      2.2672u  
    1.26707       2.2637u      2.2669u  
    1.26736       2.2634u      2.2667u  
    1.26765       2.2632u      2.2664u  
    1.26794       2.2629u      2.2661u  
    1.26824       2.2626u      2.2659u  
    1.26853       2.2624u      2.2656u  
    1.26882       2.2621u      2.2654u  
    1.26911       2.2619u      2.2651u  
    1.26940       2.2616u      2.2648u  
    1.26970       2.2613u      2.2646u  
    1.26999       2.2611u      2.2643u  
    1.27028       2.2608u      2.2641u  
    1.27057       2.2606u      2.2638u  
    1.27087       2.2603u      2.2635u  
    1.27116       2.2600u      2.2633u  
    1.27145       2.2598u      2.2630u  
    1.27174       2.2595u      2.2628u  
    1.27204       2.2593u      2.2625u  
    1.27233       2.2590u      2.2622u  
    1.27262       2.2587u      2.2620u  
    1.27292       2.2585u      2.2617u  
    1.27321       2.2582u      2.2615u  
    1.27350       2.2580u      2.2612u  
    1.27380       2.2577u      2.2610u  
    1.27409       2.2575u      2.2607u  
    1.27438       2.2572u      2.2604u  
    1.27468       2.2569u      2.2602u  
    1.27497       2.2567u      2.2599u  
    1.27526       2.2564u      2.2597u  
    1.27556       2.2562u      2.2594u  
    1.27585       2.2559u      2.2591u  
    1.27614       2.2556u      2.2589u  
    1.27644       2.2554u      2.2586u  
    1.27673       2.2551u      2.2584u  
    1.27703       2.2549u      2.2581u  
    1.27732       2.2546u      2.2578u  
    1.27761       2.2543u      2.2576u  
    1.27791       2.2541u      2.2573u  
    1.27820       2.2538u      2.2571u  
    1.27850       2.2536u      2.2568u  
    1.27879       2.2533u      2.2565u  
    1.27909       2.2531u      2.2563u  
    1.27938       2.2528u      2.2560u  
    1.27968       2.2525u      2.2558u  
    1.27997       2.2523u      2.2555u  
    1.28027       2.2520u      2.2553u  
    1.28056       2.2518u      2.2550u  
    1.28086       2.2515u      2.2547u  
    1.28115       2.2512u      2.2545u  
    1.28145       2.2510u      2.2542u  
    1.28174       2.2507u      2.2540u  
    1.28204       2.2505u      2.2537u  
    1.28233       2.2502u      2.2534u  
    1.28263       2.2500u      2.2532u  
    1.28292       2.2497u      2.2529u  
    1.28322       2.2494u      2.2527u  
    1.28351       2.2492u      2.2524u  
    1.28381       2.2489u      2.2522u  
    1.28410       2.2487u      2.2519u  
    1.28440       2.2484u      2.2516u  
    1.28469       2.2481u      2.2514u  
    1.28499       2.2479u      2.2511u  
    1.28529       2.2476u      2.2509u  
    1.28558       2.2474u      2.2506u  
    1.28588       2.2471u      2.2503u  
    1.28617       2.2469u      2.2501u  
    1.28647       2.2466u      2.2498u  
    1.28677       2.2463u      2.2496u  
    1.28706       2.2461u      2.2493u  
    1.28736       2.2458u      2.2491u  
    1.28766       2.2456u      2.2488u  
    1.28795       2.2453u      2.2485u  
    1.28825       2.2451u      2.2483u  
    1.28855       2.2448u      2.2480u  
    1.28884       2.2445u      2.2478u  
    1.28914       2.2443u      2.2475u  
    1.28944       2.2440u      2.2472u  
    1.28973       2.2438u      2.2470u  
    1.29003       2.2435u      2.2467u  
    1.29033       2.2433u      2.2465u  
    1.29062       2.2430u      2.2462u  
    1.29092       2.2427u      2.2460u  
    1.29122       2.2425u      2.2457u  
    1.29152       2.2422u      2.2454u  
    1.29181       2.2420u      2.2452u  
    1.29211       2.2417u      2.2449u  
    1.29241       2.2415u      2.2447u  
    1.29271       2.2412u      2.2444u  
    1.29300       2.2409u      2.2442u  
    1.29330       2.2407u      2.2439u  
    1.29360       2.2404u      2.2436u  
    1.29390       2.2402u      2.2434u  
    1.29420       2.2399u      2.2431u  
    1.29449       2.2397u      2.2429u  
    1.29479       2.2394u      2.2426u  
    1.29509       2.2391u      2.2424u  
    1.29539       2.2389u      2.2421u  
    1.29569       2.2386u      2.2418u  
    1.29599       2.2384u      2.2416u  
    1.29628       2.2381u      2.2413u  
    1.29658       2.2379u      2.2411u  
    1.29688       2.2376u      2.2408u  
    1.29718       2.2373u      2.2406u  
    1.29748       2.2371u      2.2403u  
    1.29778       2.2368u      2.2400u  
    1.29808       2.2366u      2.2398u  
    1.29837       2.2363u      2.2395u  
    1.29867       2.2361u      2.2393u  
    1.29897       2.2358u      2.2390u  
    1.29927       2.2355u      2.2388u  
    1.29957       2.2353u      2.2385u  
    1.29987       2.2350u      2.2382u  
    1.30017       2.2348u      2.2380u  
    1.30047       2.2345u      2.2377u  
    1.30077       2.2343u      2.2375u  
    1.30107       2.2340u      2.2372u  
    1.30137       2.2338u      2.2370u  
    1.30167       2.2335u      2.2367u  
    1.30197       2.2332u      2.2364u  
    1.30227       2.2330u      2.2362u  
    1.30257       2.2327u      2.2359u  
    1.30287       2.2325u      2.2357u  
    1.30317       2.2322u      2.2354u  
    1.30347       2.2320u      2.2352u  
    1.30377       2.2317u      2.2349u  
    1.30407       2.2315u      2.2347u  
    1.30437       2.2312u      2.2344u  
    1.30467       2.2309u      2.2341u  
    1.30497       2.2307u      2.2339u  
    1.30527       2.2304u      2.2336u  
    1.30557       2.2302u      2.2334u  
    1.30587       2.2299u      2.2331u  
    1.30617       2.2297u      2.2329u  
    1.30647       2.2294u      2.2326u  
    1.30677       2.2291u      2.2323u  
    1.30707       2.2289u      2.2321u  
    1.30737       2.2286u      2.2318u  
    1.30768       2.2284u      2.2316u  
    1.30798       2.2281u      2.2313u  
    1.30828       2.2279u      2.2311u  
    1.30858       2.2276u      2.2308u  
    1.30888       2.2274u      2.2306u  
    1.30918       2.2271u      2.2303u  
    1.30948       2.2268u      2.2300u  
    1.30978       2.2266u      2.2298u  
    1.31009       2.2263u      2.2295u  
    1.31039       2.2261u      2.2293u  
    1.31069       2.2258u      2.2290u  
    1.31099       2.2256u      2.2288u  
    1.31129       2.2253u      2.2285u  
    1.31160       2.2251u      2.2283u  
    1.31190       2.2248u      2.2280u  
    1.31220       2.2246u      2.2277u  
    1.31250       2.2243u      2.2275u  
    1.31280       2.2240u      2.2272u  
    1.31311       2.2238u      2.2270u  
    1.31341       2.2235u      2.2267u  
    1.31371       2.2233u      2.2265u  
    1.31401       2.2230u      2.2262u  
    1.31432       2.2228u      2.2260u  
    1.31462       2.2225u      2.2257u  
    1.31492       2.2223u      2.2254u  
    1.31522       2.2220u      2.2252u  
    1.31553       2.2217u      2.2249u  
    1.31583       2.2215u      2.2247u  
    1.31613       2.2212u      2.2244u  
    1.31644       2.2210u      2.2242u  
    1.31674       2.2207u      2.2239u  
    1.31704       2.2205u      2.2237u  
    1.31735       2.2202u      2.2234u  
    1.31765       2.2200u      2.2231u  
    1.31795       2.2197u      2.2229u  
    1.31826       2.2195u      2.2226u  
    1.31856       2.2192u      2.2224u  
    1.31886       2.2189u      2.2221u  
    1.31917       2.2187u      2.2219u  
    1.31947       2.2184u      2.2216u  
    1.31978       2.2182u      2.2214u  
    1.32008       2.2179u      2.2211u  
    1.32038       2.2177u      2.2209u  
    1.32069       2.2174u      2.2206u  
    1.32099       2.2172u      2.2203u  
    1.32130       2.2169u      2.2201u  
    1.32160       2.2167u      2.2198u  
    1.32190       2.2164u      2.2196u  
    1.32221       2.2161u      2.2193u  
    1.32251       2.2159u      2.2191u  
    1.32282       2.2156u      2.2188u  
    1.32312       2.2154u      2.2186u  
    1.32343       2.2151u      2.2183u  
    1.32373       2.2149u      2.2181u  
    1.32404       2.2146u      2.2178u  
    1.32434       2.2144u      2.2175u  
    1.32465       2.2141u      2.2173u  
    1.32495       2.2139u      2.2170u  
    1.32526       2.2136u      2.2168u  
    1.32556       2.2134u      2.2165u  
    1.32587       2.2131u      2.2163u  
    1.32617       2.2128u      2.2160u  
    1.32648       2.2126u      2.2158u  
    1.32678       2.2123u      2.2155u  
    1.32709       2.2121u      2.2153u  
    1.32739       2.2118u      2.2150u  
    1.32770       2.2116u      2.2148u  
    1.32801       2.2113u      2.2145u  
    1.32831       2.2111u      2.2142u  
    1.32862       2.2108u      2.2140u  
    1.32892       2.2106u      2.2137u  
    1.32923       2.2103u      2.2135u  
    1.32954       2.2101u      2.2132u  
    1.32984       2.2098u      2.2130u  
    1.33015       2.2095u      2.2127u  
    1.33045       2.2093u      2.2125u  
    1.33076       2.2090u      2.2122u  
    1.33107       2.2088u      2.2120u  
    1.33137       2.2085u      2.2117u  
    1.33168       2.2083u      2.2115u  
    1.33199       2.2080u      2.2112u  
    1.33229       2.2078u      2.2109u  
    1.33260       2.2075u      2.2107u  
    1.33291       2.2073u      2.2104u  
    1.33321       2.2070u      2.2102u  
    1.33352       2.2068u      2.2099u  
    1.33383       2.2065u      2.2097u  
    1.33414       2.2063u      2.2094u  
    1.33444       2.2060u      2.2092u  
    1.33475       2.2058u      2.2089u  
    1.33506       2.2055u      2.2087u  
    1.33537       2.2052u      2.2084u  
    1.33567       2.2050u      2.2082u  
    1.33598       2.2047u      2.2079u  
    1.33629       2.2045u      2.2076u  
    1.33660       2.2042u      2.2074u  
    1.33690       2.2040u      2.2071u  
    1.33721       2.2037u      2.2069u  
    1.33752       2.2035u      2.2066u  
    1.33783       2.2032u      2.2064u  
    1.33814       2.2030u      2.2061u  
    1.33844       2.2027u      2.2059u  
    1.33875       2.2025u      2.2056u  
    1.33906       2.2022u      2.2054u  
    1.33937       2.2020u      2.2051u  
    1.33968       2.2017u      2.2049u  
    1.33999       2.2015u      2.2046u  
    1.34029       2.2012u      2.2044u  
    1.34060       2.2009u      2.2041u  
    1.34091       2.2007u      2.2039u  
    1.34122       2.2004u      2.2036u  
    1.34153       2.2002u      2.2033u  
    1.34184       2.1999u      2.2031u  
    1.34215       2.1997u      2.2028u  
    1.34246       2.1994u      2.2026u  
    1.34276       2.1992u      2.2023u  
    1.34307       2.1989u      2.2021u  
    1.34338       2.1987u      2.2018u  
    1.34369       2.1984u      2.2016u  
    1.34400       2.1982u      2.2013u  
    1.34431       2.1979u      2.2011u  
    1.34462       2.1977u      2.2008u  
    1.34493       2.1974u      2.2006u  
    1.34524       2.1972u      2.2003u  
    1.34555       2.1969u      2.2001u  
    1.34586       2.1967u      2.1998u  
    1.34617       2.1964u      2.1996u  
    1.34648       2.1962u      2.1993u  
    1.34679       2.1959u      2.1991u  
    1.34710       2.1957u      2.1988u  
    1.34741       2.1954u      2.1986u  
    1.34772       2.1952u      2.1983u  
    1.34803       2.1949u      2.1980u  
    1.34834       2.1946u      2.1978u  
    1.34865       2.1944u      2.1975u  
    1.34896       2.1941u      2.1973u  
    1.34927       2.1939u      2.1970u  
    1.34958       2.1936u      2.1968u  
    1.34990       2.1934u      2.1965u  
    1.35021       2.1931u      2.1963u  
    1.35052       2.1929u      2.1960u  
    1.35083       2.1926u      2.1958u  
    1.35114       2.1924u      2.1955u  
    1.35145       2.1921u      2.1953u  
    1.35176       2.1919u      2.1950u  
    1.35207       2.1916u      2.1948u  
    1.35238       2.1914u      2.1945u  
    1.35270       2.1911u      2.1943u  
    1.35301       2.1909u      2.1940u  
    1.35332       2.1906u      2.1938u  
    1.35363       2.1904u      2.1935u  
    1.35394       2.1901u      2.1933u  
    1.35425       2.1899u      2.1930u  
    1.35457       2.1896u      2.1928u  
    1.35488       2.1894u      2.1925u  
    1.35519       2.1891u      2.1923u  
    1.35550       2.1889u      2.1920u  
    1.35581       2.1886u      2.1918u  
    1.35613       2.1884u      2.1915u  
    1.35644       2.1881u      2.1913u  
    1.35675       2.1879u      2.1910u  
    1.35706       2.1876u      2.1908u  
    1.35738       2.1874u      2.1905u  
    1.35769       2.1871u      2.1902u  
    1.35800       2.1869u      2.1900u  
    1.35831       2.1866u      2.1897u  
    1.35863       2.1864u      2.1895u  
    1.35894       2.1861u      2.1892u  
    1.35925       2.1859u      2.1890u  
    1.35957       2.1856u      2.1887u  
    1.35988       2.1854u      2.1885u  
    1.36019       2.1851u      2.1882u  
    1.36050       2.1849u      2.1880u  
    1.36082       2.1846u      2.1877u  
    1.36113       2.1844u      2.1875u  
    1.36144       2.1841u      2.1872u  
    1.36176       2.1839u      2.1870u  
    1.36207       2.1836u      2.1867u  
    1.36239       2.1834u      2.1865u  
    1.36270       2.1831u      2.1862u  
    1.36301       2.1829u      2.1860u  
    1.36333       2.1826u      2.1857u  
    1.36364       2.1824u      2.1855u  
    1.36395       2.1821u      2.1852u  
    1.36427       2.1819u      2.1850u  
    1.36458       2.1816u      2.1847u  
    1.36490       2.1813u      2.1845u  
    1.36521       2.1811u      2.1842u  
    1.36553       2.1808u      2.1840u  
    1.36584       2.1806u      2.1837u  
    1.36616       2.1803u      2.1835u  
    1.36647       2.1801u      2.1832u  
    1.36678       2.1798u      2.1830u  
    1.36710       2.1796u      2.1827u  
    1.36741       2.1793u      2.1825u  
    1.36773       2.1791u      2.1822u  
    1.36804       2.1788u      2.1820u  
    1.36836       2.1786u      2.1817u  
    1.36867       2.1783u      2.1815u  
    1.36899       2.1781u      2.1812u  
    1.36930       2.1779u      2.1810u  
    1.36962       2.1776u      2.1807u  
    1.36994       2.1774u      2.1805u  
    1.37025       2.1771u      2.1802u  
    1.37057       2.1769u      2.1800u  
    1.37088       2.1766u      2.1797u  
    1.37120       2.1764u      2.1795u  
    1.37151       2.1761u      2.1792u  
    1.37183       2.1759u      2.1790u  
    1.37214       2.1756u      2.1787u  
    1.37246       2.1754u      2.1785u  
    1.37278       2.1751u      2.1782u  
    1.37309       2.1749u      2.1780u  
    1.37341       2.1746u      2.1777u  
    1.37373       2.1744u      2.1775u  
    1.37404       2.1741u      2.1772u  
    1.37436       2.1739u      2.1770u  
    1.37467       2.1736u      2.1767u  
    1.37499       2.1734u      2.1765u  
    1.37531       2.1731u      2.1762u  
    1.37562       2.1729u      2.1760u  
    1.37594       2.1726u      2.1757u  
    1.37626       2.1724u      2.1755u  
    1.37658       2.1721u      2.1752u  
    1.37689       2.1719u      2.1750u  
    1.37721       2.1716u      2.1747u  
    1.37753       2.1714u      2.1745u  
    1.37784       2.1711u      2.1742u  
    1.37816       2.1709u      2.1740u  
    1.37848       2.1706u      2.1737u  
    1.37880       2.1704u      2.1735u  
[...]
   63.32862x    725.0371p    726.3005p  
   63.34320x    725.0099p    726.2734p  
   63.35779x    724.9828p    726.2463p  
   63.37238x    724.9556p    726.2193p  
   63.38697x    724.9284p    726.1922p  
   63.40157x    724.9013p    726.1651p  
   63.41617x    724.8742p    726.1380p  
   63.43077x    724.8471p    726.1109p  
   63.44538x    724.8199p    726.0838p  
   63.45999x    724.7928p    726.0568p  
   63.47460x    724.7657p    726.0297p  
   63.48922x    724.7386p    726.0027p  
   63.50384x    724.7115p    725.9756p  
   63.51847x    724.6844p    725.9486p  
   63.53309x    724.6573p    725.9215p  
   63.54772x    724.6302p    725.8945p  
   63.56236x    724.6031p    725.8675p  
   63.57700x    724.5760p    725.8404p  
   63.59164x    724.5490p    725.8134p  
   63.60628x    724.5219p    725.7865p  
   63.62093x    724.4948p    725.7594p  
   63.63558x    724.4677p    725.7324p  
   63.65023x    724.4407p    725.7054p  
   63.66489x    724.4137p    725.6784p  
   63.67955x    724.3867p    725.6515p  
   63.69422x    724.3596p    725.6245p  
   63.70888x    724.3325p    725.5975p  
   63.72356x    724.3055p    725.5705p  
   63.73823x    724.2785p    725.5435p  
   63.75291x    724.2515p    725.5166p  
   63.76759x    724.2245p    725.4896p  
   63.78227x    724.1974p    725.4627p  
   63.79696x    724.1704p    725.4357p  
   63.81165x    724.1434p    725.4087p  
   63.82635x    724.1164p    725.3818p  
   63.84105x    724.0895p    725.3549p  
   63.85575x    724.0624p    725.3280p  
   63.87045x    724.0354p    725.3010p  
   63.88516x    724.0085p    725.2741p  
   63.89987x    723.9815p    725.2472p  
   63.91459x    723.9546p    725.2203p  
   63.92931x    723.9276p    725.1934p  
   63.94403x    723.9006p    725.1665p  
   63.95875x    723.8737p    725.1396p  
   63.97348x    723.8468p    725.1127p  
   63.98822x    723.8198p    725.0858p  
   64.00295x    723.7929p    725.0589p  
   64.01769x    723.7659p    725.0321p  
   64.03243x    723.7390p    725.0052p  
   64.04718x    723.7121p    724.9784p  
   64.06193x    723.6852p    724.9515p  
   64.07668x    723.6583p    724.9246p  
   64.09144x    723.6313p    724.8978p  
   64.10619x    723.6044p    724.8709p  
   64.12096x    723.5776p    724.8441p  
   64.13572x    723.5507p    724.8173p  
   64.15049x    723.5238p    724.7904p  
   64.16527x    723.4969p    724.7636p  
   64.18004x    723.4700p    724.7368p  
   64.19482x    723.4431p    724.7100p  
   64.20961x    723.4163p    724.6832p  
   64.22439x    723.3894p    724.6564p  
   64.23918x    723.3625p    724.6296p  
   64.25398x    723.3357p    724.6028p  
   64.26877x    723.3089p    724.5760p  
   64.28357x    723.2820p    724.5492p  
   64.29838x    723.2551p    724.5224p  
   64.31318x    723.2283p    724.4957p  
   64.32799x    723.2015p    724.4689p  
   64.34281x    723.1747p    724.4421p  
   64.35762x    723.1479p    724.4153p  
   64.37244x    723.1210p    724.3886p  
   64.38727x    723.0943p    724.3619p  
   64.40210x    723.0675p    724.3351p  
   64.41693x    723.0407p    724.3084p  
   64.43176x    723.0139p    724.2816p  
   64.44660x    722.9870p    724.2549p  
   64.46144x    722.9603p    724.2282p  
   64.47628x    722.9335p    724.2015p  
   64.49113x    722.9068p    724.1748p  
   64.50598x    722.8799p    724.1480p  
   64.52084x    722.8532p    724.1213p  
   64.53570x    722.8264p    724.0946p  
   64.55056x    722.7997p    724.0679p  
   64.56542x    722.7730p    724.0412p  
   64.58029x    722.7462p    724.0146p  
   64.59516x    722.7194p    723.9879p  
   64.61004x    722.6927p    723.9612p  
   64.62492x    722.6660p    723.9345p  
   64.63980x    722.6393p    723.9079p  
   64.65468x    722.6125p    723.8812p  
   64.66957x    722.5858p    723.8546p  
   64.68447x    722.5591p    723.8279p  
   64.69936x    722.5324p    723.8012p  
   64.71426x    722.5057p    723.7746p  
   64.72916x    722.4790p    723.7480p  
   64.74407x    722.4523p    723.7214p  
   64.75898x    722.4257p    723.6947p  
   64.77389x    722.3989p    723.6681p  
   64.78881x    722.3723p    723.6415p  
   64.80373x    722.3456p    723.6149p  
   64.81865x    722.3190p    723.5883p  
   64.83358x    722.2923p    723.5617p  
   64.84851x    722.2656p    723.5351p  
   64.86344x    722.2390p    723.5085p  
   64.87838x    722.2123p    723.4819p  
   64.89332x    722.1857p    723.4553p  
   64.90826x    722.1590p    723.4288p  
   64.92321x    722.1324p    723.4022p  
   64.93816x    722.1058p    723.3756p  
   64.95312x    722.0792p    723.3490p  
   64.96808x    722.0525p    723.3225p  
   64.98304x    722.0259p    723.2959p  
   64.99800x    721.9993p    723.2694p  
   65.01297x    721.9727p    723.2428p  
   65.02794x    721.9462p    723.2163p  
   65.04292x    721.9195p    723.1898p  
   65.05789x    721.8929p    723.1632p  
   65.07288x    721.8664p    723.1367p  
   65.08786x    721.8398p    723.1102p  
   65.10285x    721.8132p    723.0837p  
   65.11784x    721.7866p    723.0572p  
   65.13284x    721.7601p    723.0307p  
   65.14784x    721.7336p    723.0042p  
   65.16284x    721.7069p    722.9777p  
   65.17785x    721.6804p    722.9512p  
   65.19285x    721.6539p    722.9247p  
   65.20787x    721.6274p    722.8982p  
   65.22288x    721.6008p    722.8718p  
   65.23790x    721.5743p    722.8453p  
   65.25293x    721.5477p    722.8188p  
   65.26795x    721.5213p    722.7924p  
   65.28298x    721.4947p    722.7659p  
   65.29802x    721.4682p    722.7395p  
   65.31306x    721.4417p    722.7130p  
   65.32810x    721.4152p    722.6866p  
   65.34314x    721.3887p    722.6602p  
   65.35819x    721.3622p    722.6338p  
   65.37324x    721.3357p    722.6073p  
   65.38829x    721.3093p    722.5809p  
   65.40335x    721.2827p    722.5545p  
   65.41841x    721.2563p    722.5281p  
   65.43348x    721.2298p    722.5017p  
   65.44855x    721.2034p    722.4753p  
   65.46362x    721.1769p    722.4489p  
   65.47869x    721.1504p    722.4225p  
   65.49377x    721.1240p    722.3961p  
   65.50885x    721.0976p    722.3697p  
   65.52394x    721.0711p    722.3433p  
   65.53903x    721.0447p    722.3170p  
   65.55412x    721.0183p    722.2906p  
   65.56922x    720.9919p    722.2642p  
   65.58432x    720.9654p    722.2379p  
   65.59942x    720.9390p    722.2116p  
   65.61453x    720.9126p    722.1852p  
   65.62964x    720.8862p    722.1589p  
   65.64475x    720.8598p    722.1325p  
   65.65987x    720.8334p    722.1062p  
   65.67499x    720.8070p    722.0799p  
   65.69011x    720.7807p    722.0535p  
   65.70524x    720.7542p    722.0272p  
   65.72037x    720.7279p    722.0009p  
   65.73550x    720.7015p    721.9746p  
   65.75064x    720.6752p    721.9483p  
   65.76578x    720.6488p    721.9220p  
   65.78093x    720.6224p    721.8957p  
   65.79608x    720.5961p    721.8694p  
   65.81123x    720.5697p    721.8432p  
   65.82638x    720.5434p    721.8169p  
   65.84154x    720.5170p    721.7906p  
   65.85671x    720.4907p    721.7643p  
   65.87187x    720.4644p    721.7381p  
   65.88704x    720.4381p    721.7119p  
   65.90221x    720.4118p    721.6856p  
   65.91739x    720.3855p    721.6593p  
   65.93257x    720.3591p    721.6331p  
   65.94775x    720.3328p    721.6069p  
   65.96294x    720.3066p    721.5806p  
   65.97813x    720.2803p    721.5544p  
   65.99332x    720.2539p    721.5282p  
   66.00852x    720.2277p    721.5019p  
   66.02372x    720.2014p    721.4757p  
   66.03893x    720.1751p    721.4495p  
   66.05413x    720.1489p    721.4233p  
   66.06934x    720.1226p    721.3971p  
   66.08456x    720.0964p    721.3709p  
   66.09978x    720.0701p    721.3447p  
   66.11500x    720.0438p    721.3185p  
   66.13022x    720.0176p    721.2924p  
   66.14545x    719.9914p    721.2662p  
   66.16069x    719.9651p    721.2400p  
   66.17592x    719.9389p    721.2139p  
   66.19116x    719.9127p    721.1877p  
   66.20640x    719.8864p    721.1615p  
   66.22165x    719.8602p    721.1354p  
   66.23690x    719.8340p    721.1093p  
   66.25215x    719.8079p    721.0831p  
   66.26741x    719.7816p    721.0570p  
   66.28267x    719.7554p    721.0309p  
   66.29793x    719.7293p    721.0047p  
   66.31320x    719.7030p    720.9786p  
   66.32847x    719.6769p    720.9525p  
   66.34375x    719.6507p    720.9264p  
   66.35903x    719.6245p    720.9003p  
   66.37431x    719.5983p    720.8742p  
   66.38959x    719.5722p    720.8481p  
   66.40488x    719.5461p    720.8220p  
   66.42017x    719.5199p    720.7959p  
   66.43547x    719.4937p    720.7698p  
   66.45077x    719.4676p    720.7437p  
   66.46607x    719.4415p    720.7177p  
   66.48138x    719.4153p    720.6916p  
   66.49669x    719.3892p    720.6656p  
   66.51200x    719.3631p    720.6395p  
   66.52732x    719.3369p    720.6134p  
   66.54264x    719.3108p    720.5874p  
   66.55796x    719.2848p    720.5613p  
   66.57329x    719.2586p    720.5353p  
   66.58862x    719.2325p    720.5093p  
   66.60395x    719.2065p    720.4833p  
   66.61929x    719.1804p    720.4572p  
   66.63463x    719.1542p    720.4312p  
   66.64998x    719.1282p    720.4052p  
   66.66532x    719.1021p    720.3792p  
   66.68068x    719.0760p    720.3532p  
   66.69603x    719.0499p    720.3272p  
   66.71139x    719.0239p    720.3012p  
   66.72675x    718.9978p    720.2752p  
   66.74212x    718.9718p    720.2492p  
   66.75749x    718.9458p    720.2232p  
   66.77286x    718.9197p    720.1973p  
   66.78824x    718.8936p    720.1713p  
   66.80362x    718.8676p    720.1453p  
   66.81900x    718.8416p    720.1194p  
   66.83439x    718.8155p    720.0934p  
   66.84978x    718.7896p    720.0675p  
   66.86518x    718.7636p    720.0415p  
   66.88058x    718.7375p    720.0156p  
   66.89598x    718.7115p    719.9896p  
   66.91138x    718.6856p    719.9637p  
   66.92679x    718.6595p    719.9378p  
   66.94220x    718.6336p    719.9119p  
   66.95762x    718.6076p    719.8859p  
   66.97304x    718.5816p    719.8600p  
   66.98846x    718.5556p    719.8341p  
   67.00389x    718.5297p    719.8082p  
   67.01932x    718.5037p    719.7823p  
   67.03475x    718.4777p    719.7564p  
   67.05019x    718.4517p    719.7305p  
   67.06563x    718.4258p    719.7047p  
   67.08107x    718.3998p    719.6788p  
   67.09652x    718.3739p    719.6529p  
   67.11197x    718.3480p    719.6270p  
   67.12743x    718.3220p    719.6012p  
   67.14289x    718.2961p    719.5753p  
   67.15835x    718.2702p    719.5495p  
   67.17381x    718.2443p    719.5236p  
   67.18928x    718.2184p    719.4978p  
   67.20475x    718.1925p    719.4719p  
   67.22023x    718.1666p    719.4461p  
   67.23571x    718.1407p    719.4203p  
   67.25119x    718.1148p    719.3944p  
   67.26668x    718.0890p    719.3686p  
   67.28217x    718.0630p    719.3428p  
   67.29767x    718.0372p    719.3170p  
   67.31316x    718.0113p    719.2912p  
   67.32866x    717.9854p    719.2654p  
   67.34417x    717.9595p    719.2396p  
   67.35968x    717.9337p    719.2138p  
   67.37519x    717.9078p    719.1880p  
   67.39071x    717.8820p    719.1622p  
   67.40622x    717.8561p    719.1365p  
   67.42175x    717.8303p    719.1107p  
   67.43727x    717.8044p    719.0849p  
   67.45280x    717.7786p    719.0591p  
   67.46834x    717.7528p    719.0334p  
   67.48387x    717.7270p    719.0076p  
   67.49941x    717.7012p    718.9819p  
   67.51496x    717.6753p    718.9562p  
   67.53051x    717.6495p    718.9304p  
   67.54606x    717.6237p    718.9047p  
   67.56161x    717.5979p    718.8790p  
   67.57717x    717.5721p    718.8532p  
   67.59273x    717.5464p    718.8275p  
   67.60830x    717.5205p    718.8018p  
   67.62387x    717.4948p    718.7761p  
   67.63944x    717.4690p    718.7504p  
   67.65502x    717.4432p    718.7247p  
   67.67060x    717.4175p    718.6990p  
   67.68618x    717.3917p    718.6733p  
   67.70177x    717.3659p    718.6476p  
   67.71736x    717.3402p    718.6220p  
   67.73295x    717.3145p    718.5963p  
   67.74855x    717.2887p    718.5706p  
   67.76415x    717.2630p    718.5449p  
   67.77976x    717.2373p    718.5193p  
   67.79536x    717.2115p    718.4936p  
   67.81098x    717.1858p    718.4680p  
   67.82659x    717.1601p    718.4423p  
   67.84221x    717.1343p    718.4167p  
   67.85784x    717.1087p    718.3910p  
   67.87346x    717.0829p    718.3654p  
   67.88909x    717.0572p    718.3398p  
   67.90473x    717.0316p    718.3142p  
   67.92036x    717.0058p    718.2885p  
   67.93600x    716.9802p    718.2629p  
   67.95165x    716.9545p    718.2373p  
   67.96730x    716.9288p    718.2117p  
   67.98295x    716.9032p    718.1861p  
   67.99860x    716.8775p    718.1605p  
   68.01426x    716.8518p    718.1349p  
   68.02993x    716.8262p    718.1093p  
   68.04559x    716.8006p    718.0837p  
   68.06126x    716.7749p    718.0582p  
   68.07694x    716.7492p    718.0326p  
   68.09261x    716.7236p    718.0070p  
   68.10829x    716.6980p    717.9815p  
   68.12398x    716.6724p    717.9559p  
   68.13967x    716.6467p    717.9304p  
   68.15536x    716.6211p    717.9048p  
   68.17105x    716.5955p    717.8793p  
   68.18675x    716.5698p    717.8537p  
   68.20245x    716.5443p    717.8282p  
   68.21816x    716.5187p    717.8027p  
   68.23387x    716.4931p    717.7772p  
   68.24958x    716.4675p    717.7517p  
   68.26530x    716.4419p    717.7261p  
   68.28102x    716.4163p    717.7006p  
   68.29674x    716.3908p    717.6751p  
   68.31247x    716.3652p    717.6496p  
   68.32820x    716.3396p    717.6241p  
   68.34394x    716.3141p    717.5987p  
   68.35968x    716.2885p    717.5732p  
   68.37542x    716.2630p    717.5477p  
   68.39116x    716.2374p    717.5222p  
   68.40691x    716.2118p    717.4968p  
   68.42267x    716.1863p    717.4713p  
   68.43842x    716.1608p    717.4458p  
   68.45418x    716.1353p    717.4204p  
   68.46995x    716.1098p    717.3949p  
   68.48572x    716.0842p    717.3695p  
   68.50149x    716.0587p    717.3440p  
   68.51726x    716.0332p    717.3186p  
   68.53304x    716.0077p    717.2932p  
   68.54882x    715.9822p    717.2677p  
   68.56461x    715.9567p    717.2423p  
   68.58040x    715.9312p    717.2169p  
   68.59619x    715.9057p    717.1915p  
   68.61199x    715.8802p    717.1661p  
   68.62779x    715.8548p    717.1407p  
   68.64359x    715.8293p    717.1153p  
   68.65940x    715.8038p    717.0899p  
   68.67521x    715.7784p    717.0645p  
   68.69103x    715.7530p    717.0391p  
   68.70684x    715.7274p    717.0137p  
   68.72267x    715.7020p    716.9884p  
   68.73849x    715.6765p    716.9630p  
   68.75432x    715.6511p    716.9376p  
   68.77015x    715.6257p    716.9123p  
   68.78599x    715.6002p    716.8869p  
   68.80183x    715.5749p    716.8616p  
   68.81768x    715.5495p    716.8362p  
   68.83352x    715.5240p    716.8109p  
   68.84937x    715.4986p    716.7855p  
   68.86523x    715.4732p    716.7602p  
   68.88109x    715.4478p    716.7349p  
   68.89695x    715.4224p    716.7096p  
   68.91282x    715.3970p    716.6843p  
   68.92869x    715.3716p    716.6589p  
   68.94456x    715.3462p    716.6336p  
   68.96044x    715.3209p    716.6083p  
   68.97632x    715.2955p    716.5830p  
   68.99220x    715.2701p    716.5577p  
   69.00809x    715.2448p    716.5325p  
   69.02398x    715.2194p    716.5072p  
   69.03988x    715.1940p    716.4819p  
   69.05577x    715.1687p    716.4566p  
   69.07168x    715.1433p    716.4313p  
   69.08758x    715.1180p    716.4061p  
   69.10349x    715.0927p    716.3808p  
   69.11941x    715.0673p    716.3555p  
   69.13532x    715.0420p    716.3303p  
   69.15124x    715.0166p    716.3050p  
   69.16717x    714.9914p    716.2798p  
   69.18310x    714.9661p    716.2546p  
   69.19903x    714.9408p    716.2293p  
   69.21496x    714.9155p    716.2041p  
   69.23090x    714.8901p    716.1789p  
   69.24685x    714.8649p    716.1537p  
   69.26279x    714.8396p    716.1285p  
   69.27874x    714.8143p    716.1032p  
   69.29470x    714.7890p    716.0781p  
   69.31065x    714.7637p    716.0529p  
   69.32662x    714.7385p    716.0277p  
   69.34258x    714.7133p    716.0025p  
   69.35855x    714.6879p    715.9773p  
   69.37452x    714.6627p    715.9521p  
   69.39050x    714.6374p    715.9269p  
   69.40648x    714.6122p    715.9018p  
   69.42246x    714.5869p    715.8766p  
   69.43845x    714.5617p    715.8514p  
   69.45444x    714.5365p    715.8263p  
   69.47043x    714.5113p    715.8011p  
   69.48643x    714.4860p    715.7760p  
   69.50243x    714.4608p    715.7509p  
   69.51844x    714.4356p    715.7257p  
   69.53445x    714.4104p    715.7006p  
   69.55046x    714.3852p    715.6755p  
   69.56648x    714.3600p    715.6503p  
   69.58250x    714.3348p    715.6252p  
   69.59852x    714.3096p    715.6001p  
   69.61455x    714.2845p    715.5750p  
   69.63058x    714.2592p    715.5499p  
   69.64661x    714.2341p    715.5248p  
   69.66265x    714.2089p    715.4997p  
   69.67869x    714.1837p    715.4746p  
   69.69474x    714.1585p    715.4495p  
   69.71079x    714.1334p    715.4244p  
   69.72684x    714.1083p    715.3993p  
   69.74290x    714.0831p    715.3743p  
   69.75896x    714.0580p    715.3492p  
   69.77502x    714.0328p    715.3242p  
   69.79109x    714.0077p    715.2991p  
   69.80716x    713.9825p    715.2740p  
   69.82324x    713.9575p    715.2490p  
   69.83932x    713.9324p    715.2240p  
   69.85540x    713.9072p    715.1989p  
   69.87149x    713.8821p    715.1739p  
   69.88758x    713.8569p    715.1488p  
   69.90367x    713.8319p    715.1238p  
   69.91977x    713.8068p    715.0988p  
   69.93587x    713.7817p    715.0738p  
   69.95198x    713.7567p    715.0488p  
   69.96809x    713.7315p    715.0238p  
   69.98420x    713.7065p    714.9988p  
   70.00032x    713.6814p    714.9738p  
y
   gainmax= -1.0426E+01    at=  7.0000E+07
               from=  1.0000E+00    to=  7.0000E+07
   f3db= failed

          ***** job concluded
1****** HSPICE -- D-2010.03-SP1 64-BIT (May 27 2010) linux ******               
 ******  
 *ddcctest.sp

  ******  job statistics summary tnom=  25.000 temp=  70.000 *****
 
 
 ******  Machine Information  ******
 CPU:
 model name	: Intel(R) Xeon(R) CPU E5-2660 v3 @ 2.60GHz
 cpu MHz	: 2599.825
 
 OS:
 Linux version 2.6.32-573.8.1.el6.x86_64 (mockbuild@c6b8.bsys.dev.centos.org) (g
 cc version 4.4.7 20120313 (Red Hat 4.4.7-16) (GCC) ) #1 SMP Tue Nov 10 18:01:38
  UTC 2015


  ******  HSPICE Threads Information  ******

  Command Line Threads Count                  :     1
  Available CPU Count                         :    40
  Actual Model Evaluation(Load) Threads Count :     1
  Actual Solver Threads Count                 :     1


  ******  Circuit Statistics  ******
  # nodes       =      19 # elements   =      27
  # resistors   =       3 # capacitors =       1 # inductors   =       0
  # mutual_inds =       0 # vccs       =       0 # vcvs        =       0
  # cccs        =       0 # ccvs       =       0 # volt_srcs   =       7
  # curr_srcs   =       0 # diodes     =       0 # bjts        =       0
  # jfets       =       0 # mosfets    =      16 # U elements  =       0
  # T elements  =       0 # W elements =       0 # B elements  =       0
  # S elements  =       0 # P elements =       0 # va device   =       0


  ******  Runtime Statistics (seconds)  ******

  analysis           time    # points   tot. iter  conv.iter
  op point           0.00           1          15
  ac analysis        1.15       78452       78452
  readin             0.00
  errchk             0.00
  setup              0.00
  output             0.08


           total memory used               1719 kbytes
           total cpu time            1.23 seconds
           total elapsed time        1.52 seconds
           job started at     17:06:59 10/01/2016
           job ended   at     17:07:01 10/01/2016


 lic: Release hspice token(s) 
